version 2
run ExperimentNetwork1-0-20200907-20:09:32-9028
attr configname ExperimentNetwork1
attr datetime 20200907-20:09:32
attr experiment ExperimentNetwork1
attr inifile omnetpp.ini
attr iterationvars ""
attr iterationvarsf ""
attr measurement ""
attr network ExperimentNetwork1
attr processid 9028
attr repetition 0
attr replication #0
attr resultdir results
attr runnumber 0
attr seedset 0
param *.numBot 2
param *.numHost 4
param *.bot*[*].numPktGen 4
param *.bot*[*].pg[*].localPort 1234
param *.bot*[*].pg[*].destPort 1234
param *.bot*[*].pg[*].startTime "uniform(0.01ms, 0.05ms)"
param *.bot*[*].pg[*].sendInterval 0.01ms
param *.bot*[*].pg[0].packetType "\"UDP\""
param *.bot*[*].pg[0].packetName "\"UDPFlood\""
param *.bot*[*].pg[1].packetType "\"TCP_SYN\""
param *.bot*[*].pg[1].packetName "\"SYNFlood\""
param *.bot*[*].pg[2].packetType "\"TCP_SYNACK\""
param *.bot*[*].pg[2].packetName "\"SYNACKFlood\""
param *.bot*[*].pg[3].packetType "\"TCP_ACK\""
param *.bot*[*].pg[3].packetName "\"ACKFlood\""
param *.bot1[0].pg[*].destAddr "\"host2[0]\""
param *.bot1[1].pg[*].destAddr "\"host3[0]\""
param *.bot2[0].pg[*].destAddr "\"host1[0]\""
param *.bot2[1].pg[*].destAddr "\"host4[0]\""
param *.bot3[0].pg[*].destAddr "\"host4[0]\""
param *.bot3[1].pg[*].destAddr "\"host1[0]\""
param *.bot4[0].pg[*].destAddr "\"host3[0]\""
param *.bot4[1].pg[*].destAddr "\"host2[0]\""
param *.host*[*].numApps 1
param *.host*[*].app[*].typename "\"PingApp\""
param *.host*[*].app[*].sendInterval 0.02ms
param *.host*[*].app[*].startTime "uniform(0.01ms, 0.05ms)"
param *.host1[0].app[*].destAddr "\"host1[1]\""
param *.host1[1].app[*].destAddr "\"host2[0]\""
param *.host1[2].app[*].destAddr "\"host3[0]\""
param *.host1[3].app[*].destAddr "\"host4[0]\""
param *.host2[0].app[*].destAddr "\"host2[1]\""
param *.host2[1].app[*].destAddr "\"host1[0]\""
param *.host2[2].app[*].destAddr "\"host3[0]\""
param *.host2[3].app[*].destAddr "\"host4[0]\""
param *.host3[0].app[*].destAddr "\"host3[1]\""
param *.host3[1].app[*].destAddr "\"host1[0]\""
param *.host3[2].app[*].destAddr "\"host2[0]\""
param *.host3[3].app[*].destAddr "\"host4[0]\""
param *.host4[0].app[*].destAddr "\"host4[1]\""
param *.host4[1].app[*].destAddr "\"host2[0]\""
param *.host4[2].app[*].destAddr "\"host3[0]\""
param *.host4[3].app[*].destAddr "\"host4[0]\""
param *.internetCloud.ipv4Delayer.config "xml(\"<internetCloud symmetric='true'>   \t\t\t\t\t\t\t\t\t\t<parameters name='good'>     \t\t\t\t\t\t\t\t\t\t<traffic src='**' dest='**' delay='10ms+truncnormal(100ms,20ms)' datarate='uniform(100kbps,500kbps)' drop='uniform(0,1) &lt; uniform(0.01, 0.05)' />   \t\t\t\t\t\t\t\t\t\t</parameters> \t\t\t\t\t\t\t\t\t</internetCloud>\")"
param *.visualizer.*.interfaceTableVisualizer.displayInterfaceTables true

scalar ExperimentNetwork1.bot1[0].lo[0].lo rcvdPkFromHl:count 0
attr interpolationmode none
attr source packetReceivedFromUpper
attr title "packets received from higher layer, count"
scalar ExperimentNetwork1.bot1[0].lo[0].lo rcvdPkFromHl:sum(packetBytes) 0
attr interpolationmode none
attr source packetReceivedFromUpper
attr title "packets received from higher layer, sum(packetBytes)"
scalar ExperimentNetwork1.bot1[0].lo[0].lo passedUpPk:count 0
attr interpolationmode none
attr source packetSentToUpper
attr title "packets passed to higher layer, count"
scalar ExperimentNetwork1.bot1[0].lo[0].lo passedUpPk:sum(packetBytes) 0
attr interpolationmode none
attr source packetSentToUpper
attr title "packets passed to higher layer, sum(packetBytes)"
scalar ExperimentNetwork1.bot1[0].eth[0].mac.queue packetPopped:count 2
attr interpolationmode none
attr title "packet popped, count"
scalar ExperimentNetwork1.bot1[0].eth[0].mac.queue packetPopped:sum(packetBytes) 1582
attr interpolationmode none
attr title "packet popped, sum(packetBytes)"
statistic ExperimentNetwork1.bot1[0].eth[0].mac.queue queueingTime:histogram
field count 2
field mean 0
field stddev 0
field min 0
field max 0
field sum 0
field sqrsum 0
attr interpolationmode none
attr source queueingTime(packetPopped)
attr title "queueing times, histogram"
attr unit s
bin	-inf	0
bin	-0.5	0
bin	-0.48	0
bin	-0.46	0
bin	-0.44	0
bin	-0.42	0
bin	-0.4	0
bin	-0.38	0
bin	-0.36	0
bin	-0.34	0
bin	-0.32	0
bin	-0.3	0
bin	-0.28	0
bin	-0.26	0
bin	-0.24	0
bin	-0.22	0
bin	-0.2	0
bin	-0.18	0
bin	-0.16	0
bin	-0.14	0
bin	-0.12	0
bin	-0.1	0
bin	-0.08	0
bin	-0.06	0
bin	-0.04	0
bin	-0.02	0
bin	0	2
bin	0.02	0
bin	0.04	0
bin	0.06	0
bin	0.08	0
bin	0.1	0
bin	0.12	0
bin	0.14	0
bin	0.16	0
bin	0.18	0
bin	0.2	0
bin	0.22	0
bin	0.24	0
bin	0.26	0
bin	0.28	0
bin	0.3	0
bin	0.32	0
bin	0.34	0
bin	0.36	0
bin	0.38	0
bin	0.4	0
bin	0.42	0
bin	0.44	0
bin	0.46	0
bin	0.48	0
bin	0.5	0
scalar ExperimentNetwork1.bot1[0].eth[0].mac.queue queueLength:max 39
attr interpolationmode sample-hold
attr source "count(packetPushed) - count(packetPopped) - count(packetRemoved) - count(packetDropped)"
attr title "queue length, max"
scalar ExperimentNetwork1.bot1[0].eth[0].mac.queue queueLength:timeavg 18.861502642102
attr interpolationmode sample-hold
attr source "count(packetPushed) - count(packetPopped) - count(packetRemoved) - count(packetDropped)"
attr title "queue length, timeavg"
scalar ExperimentNetwork1.bot1[0].eth[0].mac.queue packetPushed:count 41
attr interpolationmode none
attr title "packet pushed, count"
scalar ExperimentNetwork1.bot1[0].eth[0].mac.queue packetPushed:sum(packetBytes) 18618
attr interpolationmode none
attr title "packet pushed, sum(packetBytes)"
scalar ExperimentNetwork1.bot1[0].eth[0].mac.queue packetDropQueueOverflow:count 0
attr interpolationmode none
attr source packetDropReasonIsQueueOverflow(packetDropped)
attr title "packet drops: queue overflow, count"
scalar ExperimentNetwork1.bot1[0].eth[0].mac.queue packetDropQueueOverflow:sum(packetBytes) 0
attr interpolationmode none
attr source packetDropReasonIsQueueOverflow(packetDropped)
attr title "packet drops: queue overflow, sum(packetBytes)"
scalar ExperimentNetwork1.bot1[0].eth[0].mac.queue packetRemoved:count 0
attr interpolationmode none
attr title "packets removed, count"
scalar ExperimentNetwork1.bot1[0].eth[0].mac.queue packetRemoved:sum(packetBytes) 0
attr interpolationmode none
attr title "packets removed, sum(packetBytes)"
scalar ExperimentNetwork1.bot1[0].eth[0].mac "simulated time" 0.000132107447
scalar ExperimentNetwork1.bot1[0].eth[0].mac full-duplex 1
scalar ExperimentNetwork1.bot1[0].eth[0].mac "frames/sec sent" 7569.5959819737
scalar ExperimentNetwork1.bot1[0].eth[0].mac "frames/sec rcvd" 7569.5959819737
scalar ExperimentNetwork1.bot1[0].eth[0].mac "bits/sec sent" 3875633.1427705
scalar ExperimentNetwork1.bot1[0].eth[0].mac "bits/sec rcvd" 3875633.1427705
scalar ExperimentNetwork1.bot1[0].eth[0].mac "rx channel idle (%)" 100
scalar ExperimentNetwork1.bot1[0].eth[0].mac "rx channel utilization (%)" 0
scalar ExperimentNetwork1.bot1[0].eth[0].mac txPk:count 1
attr interpolationmode none
attr source packetSentToLower
attr title "packets transmitted, count"
scalar ExperimentNetwork1.bot1[0].eth[0].mac txPk:sum(packetBytes) 64
attr interpolationmode none
attr source packetSentToLower
attr title "packets transmitted, sum(packetBytes)"
scalar ExperimentNetwork1.bot1[0].eth[0].mac packetReceivedFromUpper:count 41
attr interpolationmode none
attr source packetReceivedFromUpper
attr title "packet bytes from higher layer, count"
scalar ExperimentNetwork1.bot1[0].eth[0].mac packetReceivedFromUpper:sum(packetBytes) 18426
attr interpolationmode none
attr source packetReceivedFromUpper
attr title "packet bytes from higher layer, sum(packetBytes)"
scalar ExperimentNetwork1.bot1[0].eth[0].mac passedUpPk:count 1
attr interpolationmode none
attr source packetSentToUpper
attr title "packets passed to higher layer, count"
scalar ExperimentNetwork1.bot1[0].eth[0].mac passedUpPk:sum(packetBytes) 64
attr interpolationmode none
attr source packetSentToUpper
attr title "packets passed to higher layer, sum(packetBytes)"
scalar ExperimentNetwork1.bot1[0].eth[0].mac packetDropIncorrectlyReceived:count 0
attr interpolationmode none
attr source packetDropReasonIsIncorrectlyReceived(packetDropped)
attr title "packet drop: incorrectly received, count"
scalar ExperimentNetwork1.bot1[0].eth[0].mac packetDropIncorrectlyReceived:sum(packetBytes) 0
attr interpolationmode none
attr source packetDropReasonIsIncorrectlyReceived(packetDropped)
attr title "packet drop: incorrectly received, sum(packetBytes)"
scalar ExperimentNetwork1.bot1[0].eth[0].mac packetDropInterfaceDown:count 0
attr interpolationmode none
attr source packetDropReasonIsInterfaceDown(packetDropped)
attr title "packet drop: interface down, count"
scalar ExperimentNetwork1.bot1[0].eth[0].mac packetDropInterfaceDown:sum(packetBytes) 0
attr interpolationmode none
attr source packetDropReasonIsInterfaceDown(packetDropped)
attr title "packet drop: interface down, sum(packetBytes)"
scalar ExperimentNetwork1.bot1[0].eth[0].mac packetDropNotAddressedToUs:count 0
attr interpolationmode none
attr source packetDropReasonIsNotAddressedToUs(packetDropped)
attr title "packet drop: not addressed to us, count"
scalar ExperimentNetwork1.bot1[0].eth[0].mac packetDropNotAddressedToUs:sum(packetBytes) 0
attr interpolationmode none
attr source packetDropReasonIsNotAddressedToUs(packetDropped)
attr title "packet drop: not addressed to us, sum(packetBytes)"
scalar ExperimentNetwork1.bot1[0].eth[0].mac rxPausePkUnits:count 0
attr interpolationmode none
attr title "pause units received, count"
scalar ExperimentNetwork1.bot1[0].eth[0].mac rxPausePkUnits:sum 0
attr interpolationmode none
attr title "pause units received, sum"
scalar ExperimentNetwork1.bot1[0].eth[0].mac txPausePkUnits:count 0
attr interpolationmode none
attr title "pause units sent, count"
scalar ExperimentNetwork1.bot1[0].eth[0].mac txPausePkUnits:sum 0
attr interpolationmode none
attr title "pause units sent, sum"
scalar ExperimentNetwork1.bot1[0].eth[0].mac rxPkOk:count 1
attr interpolationmode none
attr source rxPkOk
attr title "packets received OK, count"
scalar ExperimentNetwork1.bot1[0].eth[0].mac rxPkOk:sum(packetBytes) 64
attr interpolationmode none
attr source rxPkOk
attr title "packets received OK, sum(packetBytes)"
scalar ExperimentNetwork1.bot1[0].eth[0].encap pauseSent:count 0
attr title "pause sent, count"
scalar ExperimentNetwork1.bot1[0].eth[0].encap pauseSent:sum 0
attr title "pause sent, sum"
scalar ExperimentNetwork1.bot1[0].eth[0].encap decapPk:count 1
attr interpolationmode none
attr source decapPk
attr title "packets decapsulated, count"
scalar ExperimentNetwork1.bot1[0].eth[0].encap decapPk:sum(packetBytes) 46
attr interpolationmode none
attr source decapPk
attr title "packets decapsulated, sum(packetBytes)"
scalar ExperimentNetwork1.bot1[0].eth[0].encap encapPk:count 41
attr interpolationmode none
attr source encapPk
attr title "packets encapsulated, count"
scalar ExperimentNetwork1.bot1[0].eth[0].encap encapPk:sum(packetBytes) 17688
attr interpolationmode none
attr source encapPk
attr title "packets encapsulated, sum(packetBytes)"
scalar ExperimentNetwork1.bot1[0].ipv4.ip packetDropAddressResolutionFailed:count 0
attr interpolationmode none
attr source packetDropReasonIsAddressResolutionFailed(packetDropped)
attr title "packet drop: address resolution failed, count"
scalar ExperimentNetwork1.bot1[0].ipv4.ip packetDropAddressResolutionFailed:sum(packetBytes) 0
attr interpolationmode none
attr source packetDropReasonIsAddressResolutionFailed(packetDropped)
attr title "packet drop: address resolution failed, sum(packetBytes)"
scalar ExperimentNetwork1.bot1[0].ipv4.ip packetDropHopLimitReached:count 0
attr interpolationmode none
attr source packetDropReasonIsHopLimitReached(packetDropped)
attr title "packet drop: hop limit reached, count"
scalar ExperimentNetwork1.bot1[0].ipv4.ip packetDropHopLimitReached:sum(packetBytes) 0
attr interpolationmode none
attr source packetDropReasonIsHopLimitReached(packetDropped)
attr title "packet drop: hop limit reached, sum(packetBytes)"
scalar ExperimentNetwork1.bot1[0].ipv4.ip packetDropForwardingDisabled:count 0
attr interpolationmode none
attr source packetDropReasonIsForwardingDisabled(packetDropped)
attr title "packet drop: forwarding disabled, count"
scalar ExperimentNetwork1.bot1[0].ipv4.ip packetDropForwardingDisabled:sum(packetBytes) 0
attr interpolationmode none
attr source packetDropReasonIsForwardingDisabled(packetDropped)
attr title "packet drop: forwarding disabled, sum(packetBytes)"
scalar ExperimentNetwork1.bot1[0].ipv4.ip packetDropNoInterfaceFound:count 0
attr interpolationmode none
attr source packetDropReasonIsNoInterfaceFound(packetDropped)
attr title "packet drop: no interface found, count"
scalar ExperimentNetwork1.bot1[0].ipv4.ip packetDropNoInterfaceFound:sum(packetBytes) 0
attr interpolationmode none
attr source packetDropReasonIsNoInterfaceFound(packetDropped)
attr title "packet drop: no interface found, sum(packetBytes)"
scalar ExperimentNetwork1.bot1[0].ipv4.ip packetDropNoRouteFound:count 0
attr interpolationmode none
attr source packetDropReasonIsNoRouteFound(packetDropped)
attr title "packet drop: no route found, count"
scalar ExperimentNetwork1.bot1[0].ipv4.ip packetDropNoRouteFound:sum(packetBytes) 0
attr interpolationmode none
attr source packetDropReasonIsNoRouteFound(packetDropped)
attr title "packet drop: no route found, sum(packetBytes)"
scalar ExperimentNetwork1.bot1[0].ipv4.ip packetDropUndefined:count 0
attr interpolationmode none
attr source packetDropReasonIsUndefined(packetDropped)
attr title "packet drop: undefined, count"
scalar ExperimentNetwork1.bot1[0].ipv4.ip packetDropUndefined:sum(packetBytes) 0
attr interpolationmode none
attr source packetDropReasonIsUndefined(packetDropped)
attr title "packet drop: undefined, sum(packetBytes)"
scalar ExperimentNetwork1.bot1[0].ipv4.arp arpReplySent:count 0
attr source arpReplySent
attr title "ARP replies sent, count"
scalar ExperimentNetwork1.bot1[0].ipv4.arp arpReplySent:sum(packetBytes) 0
attr source arpReplySent
attr title "ARP replies sent, sum(packetBytes)"
scalar ExperimentNetwork1.bot1[0].ipv4.arp arpRequestSent:count 1
attr source arpRequestSent
attr title "ARP request sent, count"
scalar ExperimentNetwork1.bot1[0].ipv4.arp arpRequestSent:sum(packetBytes) 28
attr source arpRequestSent
attr title "ARP request sent, sum(packetBytes)"
scalar ExperimentNetwork1.bot1[0].ipv4.arp arpResolutionFailed:count 0
attr title "ARP failed resolutions, count"
scalar ExperimentNetwork1.bot1[0].ipv4.arp arpResolutionCompleted:count 1
attr title "ARP completed resolutions, count"
scalar ExperimentNetwork1.bot1[0].ipv4.arp arpResolutionInitiated:count 1
attr title "ARP initiated resolutions, count"
scalar ExperimentNetwork1.bot1[0].udp packetReceived:count 0
attr interpolationmode none
attr source packetReceived
attr title "packets received, count"
scalar ExperimentNetwork1.bot1[0].udp packetReceived:sum(packetBytes) 0
attr interpolationmode none
attr source packetReceived
attr title "packets received, sum(packetBytes)"
scalar ExperimentNetwork1.bot1[0].udp packetSent:count 0
attr interpolationmode none
attr source packetSent
attr title "packets sent, count"
scalar ExperimentNetwork1.bot1[0].udp packetSent:sum(packetBytes) 0
attr interpolationmode none
attr source packetSent
attr title "packets sent, sum(packetBytes)"
scalar ExperimentNetwork1.bot1[0].udp passedUpPk:count 0
attr interpolationmode none
attr source packetSentToUpper
attr title "packets passed up, count"
scalar ExperimentNetwork1.bot1[0].udp droppedPkWrongPort:count 0
attr interpolationmode none
attr source packetDropReasonIsNoPortFound(packetDropped)
attr title "packets dropped (wrong port), count"
scalar ExperimentNetwork1.bot1[0].udp droppedPkBadChecksum:count 0
attr interpolationmode none
attr source packetDropReasonIsIncorrectlyReceived(packetDropped)
attr title "packets dropped (checksum error), count"
scalar ExperimentNetwork1.bot1[0].pg[0] "packets sent" 11
scalar ExperimentNetwork1.bot1[0].pg[1] "packets sent" 10
scalar ExperimentNetwork1.bot1[0].pg[2] "packets sent" 10
scalar ExperimentNetwork1.bot1[0].pg[3] "packets sent" 9
scalar ExperimentNetwork1.bot1[1].lo[0].lo rcvdPkFromHl:count 0
attr interpolationmode none
attr source packetReceivedFromUpper
attr title "packets received from higher layer, count"
scalar ExperimentNetwork1.bot1[1].lo[0].lo rcvdPkFromHl:sum(packetBytes) 0
attr interpolationmode none
attr source packetReceivedFromUpper
attr title "packets received from higher layer, sum(packetBytes)"
scalar ExperimentNetwork1.bot1[1].lo[0].lo passedUpPk:count 0
attr interpolationmode none
attr source packetSentToUpper
attr title "packets passed to higher layer, count"
scalar ExperimentNetwork1.bot1[1].lo[0].lo passedUpPk:sum(packetBytes) 0
attr interpolationmode none
attr source packetSentToUpper
attr title "packets passed to higher layer, sum(packetBytes)"
scalar ExperimentNetwork1.bot1[1].eth[0].mac.queue packetPopped:count 3
attr interpolationmode none
attr title "packet popped, count"
scalar ExperimentNetwork1.bot1[1].eth[0].mac.queue packetPopped:sum(packetBytes) 1646
attr interpolationmode none
attr title "packet popped, sum(packetBytes)"
statistic ExperimentNetwork1.bot1[1].eth[0].mac.queue queueingTime:histogram
field count 3
field mean 2.24e-006
field stddev 3.8797938089543e-006
field min 0
field max 6.72e-006
field sum 6.72e-006
field sqrsum 4.51584e-011
attr interpolationmode none
attr source queueingTime(packetPopped)
attr title "queueing times, histogram"
attr unit s
bin	-inf	0
bin	0	2
bin	1e-007	0
bin	2e-007	0
bin	3e-007	0
bin	4e-007	0
bin	5e-007	0
bin	6e-007	0
bin	7e-007	0
bin	8e-007	0
bin	9e-007	0
bin	1e-006	0
bin	1.1e-006	0
bin	1.2e-006	0
bin	1.3e-006	0
bin	1.4e-006	0
bin	1.5e-006	0
bin	1.6e-006	0
bin	1.7e-006	0
bin	1.8e-006	0
bin	1.9e-006	0
bin	2e-006	0
bin	2.1e-006	0
bin	2.2e-006	0
bin	2.3e-006	0
bin	2.4e-006	0
bin	2.5e-006	0
bin	2.6e-006	0
bin	2.7e-006	0
bin	2.8e-006	0
bin	2.9e-006	0
bin	3e-006	0
bin	3.1e-006	0
bin	3.2e-006	0
bin	3.3e-006	0
bin	3.4e-006	0
bin	3.5e-006	0
bin	3.6e-006	0
bin	3.7e-006	0
bin	3.8e-006	0
bin	3.9e-006	0
bin	4e-006	0
bin	4.1e-006	0
bin	4.2e-006	0
bin	4.3e-006	0
bin	4.4e-006	0
bin	4.5e-006	0
bin	4.6e-006	0
bin	4.7e-006	0
bin	4.8e-006	0
bin	4.9e-006	0
bin	5e-006	0
bin	5.1e-006	0
bin	5.2e-006	0
bin	5.3e-006	0
bin	5.4e-006	0
bin	5.5e-006	0
bin	5.6e-006	0
bin	5.7e-006	0
bin	5.8e-006	0
bin	5.9e-006	0
bin	6e-006	0
bin	6.1e-006	0
bin	6.2e-006	0
bin	6.3e-006	0
bin	6.4e-006	0
bin	6.5e-006	0
bin	6.6e-006	0
bin	6.7e-006	1
bin	6.8e-006	0
bin	6.9e-006	0
bin	7e-006	0
bin	7.1e-006	0
bin	7.2e-006	0
bin	7.3e-006	0
bin	7.4e-006	0
bin	7.5e-006	0
bin	7.6e-006	0
bin	7.7e-006	0
bin	7.8e-006	0
bin	7.9e-006	0
bin	8e-006	0
bin	8.1e-006	0
bin	8.2e-006	0
bin	8.3e-006	0
bin	8.4e-006	0
scalar ExperimentNetwork1.bot1[1].eth[0].mac.queue queueLength:max 37
attr interpolationmode sample-hold
attr source "count(packetPushed) - count(packetPopped) - count(packetRemoved) - count(packetDropped)"
attr title "queue length, max"
scalar ExperimentNetwork1.bot1[1].eth[0].mac.queue queueLength:timeavg 17.487980594967
attr interpolationmode sample-hold
attr source "count(packetPushed) - count(packetPopped) - count(packetRemoved) - count(packetDropped)"
attr title "queue length, timeavg"
scalar ExperimentNetwork1.bot1[1].eth[0].mac.queue packetPushed:count 40
attr interpolationmode none
attr title "packet pushed, count"
scalar ExperimentNetwork1.bot1[1].eth[0].mac.queue packetPushed:sum(packetBytes) 17100
attr interpolationmode none
attr title "packet pushed, sum(packetBytes)"
scalar ExperimentNetwork1.bot1[1].eth[0].mac.queue packetDropQueueOverflow:count 0
attr interpolationmode none
attr source packetDropReasonIsQueueOverflow(packetDropped)
attr title "packet drops: queue overflow, count"
scalar ExperimentNetwork1.bot1[1].eth[0].mac.queue packetDropQueueOverflow:sum(packetBytes) 0
attr interpolationmode none
attr source packetDropReasonIsQueueOverflow(packetDropped)
attr title "packet drops: queue overflow, sum(packetBytes)"
scalar ExperimentNetwork1.bot1[1].eth[0].mac.queue packetRemoved:count 0
attr interpolationmode none
attr title "packets removed, count"
scalar ExperimentNetwork1.bot1[1].eth[0].mac.queue packetRemoved:sum(packetBytes) 0
attr interpolationmode none
attr title "packets removed, sum(packetBytes)"
scalar ExperimentNetwork1.bot1[1].eth[0].mac "simulated time" 0.000132107447
scalar ExperimentNetwork1.bot1[1].eth[0].mac full-duplex 1
scalar ExperimentNetwork1.bot1[1].eth[0].mac "frames/sec sent" 15139.191963947
scalar ExperimentNetwork1.bot1[1].eth[0].mac "frames/sec rcvd" 7569.5959819737
scalar ExperimentNetwork1.bot1[1].eth[0].mac "bits/sec sent" 7751266.285541
scalar ExperimentNetwork1.bot1[1].eth[0].mac "bits/sec rcvd" 3875633.1427705
scalar ExperimentNetwork1.bot1[1].eth[0].mac "rx channel idle (%)" 100
scalar ExperimentNetwork1.bot1[1].eth[0].mac "rx channel utilization (%)" 0
scalar ExperimentNetwork1.bot1[1].eth[0].mac txPk:count 2
attr interpolationmode none
attr source packetSentToLower
attr title "packets transmitted, count"
scalar ExperimentNetwork1.bot1[1].eth[0].mac txPk:sum(packetBytes) 128
attr interpolationmode none
attr source packetSentToLower
attr title "packets transmitted, sum(packetBytes)"
scalar ExperimentNetwork1.bot1[1].eth[0].mac packetReceivedFromUpper:count 40
attr interpolationmode none
attr source packetReceivedFromUpper
attr title "packet bytes from higher layer, count"
scalar ExperimentNetwork1.bot1[1].eth[0].mac packetReceivedFromUpper:sum(packetBytes) 16908
attr interpolationmode none
attr source packetReceivedFromUpper
attr title "packet bytes from higher layer, sum(packetBytes)"
scalar ExperimentNetwork1.bot1[1].eth[0].mac passedUpPk:count 1
attr interpolationmode none
attr source packetSentToUpper
attr title "packets passed to higher layer, count"
scalar ExperimentNetwork1.bot1[1].eth[0].mac passedUpPk:sum(packetBytes) 64
attr interpolationmode none
attr source packetSentToUpper
attr title "packets passed to higher layer, sum(packetBytes)"
scalar ExperimentNetwork1.bot1[1].eth[0].mac packetDropIncorrectlyReceived:count 0
attr interpolationmode none
attr source packetDropReasonIsIncorrectlyReceived(packetDropped)
attr title "packet drop: incorrectly received, count"
scalar ExperimentNetwork1.bot1[1].eth[0].mac packetDropIncorrectlyReceived:sum(packetBytes) 0
attr interpolationmode none
attr source packetDropReasonIsIncorrectlyReceived(packetDropped)
attr title "packet drop: incorrectly received, sum(packetBytes)"
scalar ExperimentNetwork1.bot1[1].eth[0].mac packetDropInterfaceDown:count 0
attr interpolationmode none
attr source packetDropReasonIsInterfaceDown(packetDropped)
attr title "packet drop: interface down, count"
scalar ExperimentNetwork1.bot1[1].eth[0].mac packetDropInterfaceDown:sum(packetBytes) 0
attr interpolationmode none
attr source packetDropReasonIsInterfaceDown(packetDropped)
attr title "packet drop: interface down, sum(packetBytes)"
scalar ExperimentNetwork1.bot1[1].eth[0].mac packetDropNotAddressedToUs:count 0
attr interpolationmode none
attr source packetDropReasonIsNotAddressedToUs(packetDropped)
attr title "packet drop: not addressed to us, count"
scalar ExperimentNetwork1.bot1[1].eth[0].mac packetDropNotAddressedToUs:sum(packetBytes) 0
attr interpolationmode none
attr source packetDropReasonIsNotAddressedToUs(packetDropped)
attr title "packet drop: not addressed to us, sum(packetBytes)"
scalar ExperimentNetwork1.bot1[1].eth[0].mac rxPausePkUnits:count 0
attr interpolationmode none
attr title "pause units received, count"
scalar ExperimentNetwork1.bot1[1].eth[0].mac rxPausePkUnits:sum 0
attr interpolationmode none
attr title "pause units received, sum"
scalar ExperimentNetwork1.bot1[1].eth[0].mac txPausePkUnits:count 0
attr interpolationmode none
attr title "pause units sent, count"
scalar ExperimentNetwork1.bot1[1].eth[0].mac txPausePkUnits:sum 0
attr interpolationmode none
attr title "pause units sent, sum"
scalar ExperimentNetwork1.bot1[1].eth[0].mac rxPkOk:count 1
attr interpolationmode none
attr source rxPkOk
attr title "packets received OK, count"
scalar ExperimentNetwork1.bot1[1].eth[0].mac rxPkOk:sum(packetBytes) 64
attr interpolationmode none
attr source rxPkOk
attr title "packets received OK, sum(packetBytes)"
scalar ExperimentNetwork1.bot1[1].eth[0].encap pauseSent:count 0
attr title "pause sent, count"
scalar ExperimentNetwork1.bot1[1].eth[0].encap pauseSent:sum 0
attr title "pause sent, sum"
scalar ExperimentNetwork1.bot1[1].eth[0].encap decapPk:count 1
attr interpolationmode none
attr source decapPk
attr title "packets decapsulated, count"
scalar ExperimentNetwork1.bot1[1].eth[0].encap decapPk:sum(packetBytes) 46
attr interpolationmode none
attr source decapPk
attr title "packets decapsulated, sum(packetBytes)"
scalar ExperimentNetwork1.bot1[1].eth[0].encap encapPk:count 40
attr interpolationmode none
attr source encapPk
attr title "packets encapsulated, count"
scalar ExperimentNetwork1.bot1[1].eth[0].encap encapPk:sum(packetBytes) 16188
attr interpolationmode none
attr source encapPk
attr title "packets encapsulated, sum(packetBytes)"
scalar ExperimentNetwork1.bot1[1].ipv4.ip packetDropAddressResolutionFailed:count 0
attr interpolationmode none
attr source packetDropReasonIsAddressResolutionFailed(packetDropped)
attr title "packet drop: address resolution failed, count"
scalar ExperimentNetwork1.bot1[1].ipv4.ip packetDropAddressResolutionFailed:sum(packetBytes) 0
attr interpolationmode none
attr source packetDropReasonIsAddressResolutionFailed(packetDropped)
attr title "packet drop: address resolution failed, sum(packetBytes)"
scalar ExperimentNetwork1.bot1[1].ipv4.ip packetDropHopLimitReached:count 0
attr interpolationmode none
attr source packetDropReasonIsHopLimitReached(packetDropped)
attr title "packet drop: hop limit reached, count"
scalar ExperimentNetwork1.bot1[1].ipv4.ip packetDropHopLimitReached:sum(packetBytes) 0
attr interpolationmode none
attr source packetDropReasonIsHopLimitReached(packetDropped)
attr title "packet drop: hop limit reached, sum(packetBytes)"
scalar ExperimentNetwork1.bot1[1].ipv4.ip packetDropForwardingDisabled:count 0
attr interpolationmode none
attr source packetDropReasonIsForwardingDisabled(packetDropped)
attr title "packet drop: forwarding disabled, count"
scalar ExperimentNetwork1.bot1[1].ipv4.ip packetDropForwardingDisabled:sum(packetBytes) 0
attr interpolationmode none
attr source packetDropReasonIsForwardingDisabled(packetDropped)
attr title "packet drop: forwarding disabled, sum(packetBytes)"
scalar ExperimentNetwork1.bot1[1].ipv4.ip packetDropNoInterfaceFound:count 0
attr interpolationmode none
attr source packetDropReasonIsNoInterfaceFound(packetDropped)
attr title "packet drop: no interface found, count"
scalar ExperimentNetwork1.bot1[1].ipv4.ip packetDropNoInterfaceFound:sum(packetBytes) 0
attr interpolationmode none
attr source packetDropReasonIsNoInterfaceFound(packetDropped)
attr title "packet drop: no interface found, sum(packetBytes)"
scalar ExperimentNetwork1.bot1[1].ipv4.ip packetDropNoRouteFound:count 0
attr interpolationmode none
attr source packetDropReasonIsNoRouteFound(packetDropped)
attr title "packet drop: no route found, count"
scalar ExperimentNetwork1.bot1[1].ipv4.ip packetDropNoRouteFound:sum(packetBytes) 0
attr interpolationmode none
attr source packetDropReasonIsNoRouteFound(packetDropped)
attr title "packet drop: no route found, sum(packetBytes)"
scalar ExperimentNetwork1.bot1[1].ipv4.ip packetDropUndefined:count 0
attr interpolationmode none
attr source packetDropReasonIsUndefined(packetDropped)
attr title "packet drop: undefined, count"
scalar ExperimentNetwork1.bot1[1].ipv4.ip packetDropUndefined:sum(packetBytes) 0
attr interpolationmode none
attr source packetDropReasonIsUndefined(packetDropped)
attr title "packet drop: undefined, sum(packetBytes)"
scalar ExperimentNetwork1.bot1[1].ipv4.arp arpReplySent:count 0
attr source arpReplySent
attr title "ARP replies sent, count"
scalar ExperimentNetwork1.bot1[1].ipv4.arp arpReplySent:sum(packetBytes) 0
attr source arpReplySent
attr title "ARP replies sent, sum(packetBytes)"
scalar ExperimentNetwork1.bot1[1].ipv4.arp arpRequestSent:count 1
attr source arpRequestSent
attr title "ARP request sent, count"
scalar ExperimentNetwork1.bot1[1].ipv4.arp arpRequestSent:sum(packetBytes) 28
attr source arpRequestSent
attr title "ARP request sent, sum(packetBytes)"
scalar ExperimentNetwork1.bot1[1].ipv4.arp arpResolutionFailed:count 0
attr title "ARP failed resolutions, count"
scalar ExperimentNetwork1.bot1[1].ipv4.arp arpResolutionCompleted:count 1
attr title "ARP completed resolutions, count"
scalar ExperimentNetwork1.bot1[1].ipv4.arp arpResolutionInitiated:count 1
attr title "ARP initiated resolutions, count"
scalar ExperimentNetwork1.bot1[1].udp packetReceived:count 0
attr interpolationmode none
attr source packetReceived
attr title "packets received, count"
scalar ExperimentNetwork1.bot1[1].udp packetReceived:sum(packetBytes) 0
attr interpolationmode none
attr source packetReceived
attr title "packets received, sum(packetBytes)"
scalar ExperimentNetwork1.bot1[1].udp packetSent:count 0
attr interpolationmode none
attr source packetSent
attr title "packets sent, count"
scalar ExperimentNetwork1.bot1[1].udp packetSent:sum(packetBytes) 0
attr interpolationmode none
attr source packetSent
attr title "packets sent, sum(packetBytes)"
scalar ExperimentNetwork1.bot1[1].udp passedUpPk:count 0
attr interpolationmode none
attr source packetSentToUpper
attr title "packets passed up, count"
scalar ExperimentNetwork1.bot1[1].udp droppedPkWrongPort:count 0
attr interpolationmode none
attr source packetDropReasonIsNoPortFound(packetDropped)
attr title "packets dropped (wrong port), count"
scalar ExperimentNetwork1.bot1[1].udp droppedPkBadChecksum:count 0
attr interpolationmode none
attr source packetDropReasonIsIncorrectlyReceived(packetDropped)
attr title "packets dropped (checksum error), count"
scalar ExperimentNetwork1.bot1[1].pg[0] "packets sent" 10
scalar ExperimentNetwork1.bot1[1].pg[1] "packets sent" 9
scalar ExperimentNetwork1.bot1[1].pg[2] "packets sent" 11
scalar ExperimentNetwork1.bot1[1].pg[3] "packets sent" 9
scalar ExperimentNetwork1.bot2[0].lo[0].lo rcvdPkFromHl:count 0
attr interpolationmode none
attr source packetReceivedFromUpper
attr title "packets received from higher layer, count"
scalar ExperimentNetwork1.bot2[0].lo[0].lo rcvdPkFromHl:sum(packetBytes) 0
attr interpolationmode none
attr source packetReceivedFromUpper
attr title "packets received from higher layer, sum(packetBytes)"
scalar ExperimentNetwork1.bot2[0].lo[0].lo passedUpPk:count 0
attr interpolationmode none
attr source packetSentToUpper
attr title "packets passed to higher layer, count"
scalar ExperimentNetwork1.bot2[0].lo[0].lo passedUpPk:sum(packetBytes) 0
attr interpolationmode none
attr source packetSentToUpper
attr title "packets passed to higher layer, sum(packetBytes)"
scalar ExperimentNetwork1.bot2[0].eth[0].mac.queue packetPopped:count 3
attr interpolationmode none
attr title "packet popped, count"
scalar ExperimentNetwork1.bot2[0].eth[0].mac.queue packetPopped:sum(packetBytes) 1646
attr interpolationmode none
attr title "packet popped, sum(packetBytes)"
statistic ExperimentNetwork1.bot2[0].eth[0].mac.queue queueingTime:histogram
field count 3
field mean 2.24e-006
field stddev 3.8797938089543e-006
field min 0
field max 6.72e-006
field sum 6.72e-006
field sqrsum 4.51584e-011
attr interpolationmode none
attr source queueingTime(packetPopped)
attr title "queueing times, histogram"
attr unit s
bin	-inf	0
bin	0	2
bin	1e-007	0
bin	2e-007	0
bin	3e-007	0
bin	4e-007	0
bin	5e-007	0
bin	6e-007	0
bin	7e-007	0
bin	8e-007	0
bin	9e-007	0
bin	1e-006	0
bin	1.1e-006	0
bin	1.2e-006	0
bin	1.3e-006	0
bin	1.4e-006	0
bin	1.5e-006	0
bin	1.6e-006	0
bin	1.7e-006	0
bin	1.8e-006	0
bin	1.9e-006	0
bin	2e-006	0
bin	2.1e-006	0
bin	2.2e-006	0
bin	2.3e-006	0
bin	2.4e-006	0
bin	2.5e-006	0
bin	2.6e-006	0
bin	2.7e-006	0
bin	2.8e-006	0
bin	2.9e-006	0
bin	3e-006	0
bin	3.1e-006	0
bin	3.2e-006	0
bin	3.3e-006	0
bin	3.4e-006	0
bin	3.5e-006	0
bin	3.6e-006	0
bin	3.7e-006	0
bin	3.8e-006	0
bin	3.9e-006	0
bin	4e-006	0
bin	4.1e-006	0
bin	4.2e-006	0
bin	4.3e-006	0
bin	4.4e-006	0
bin	4.5e-006	0
bin	4.6e-006	0
bin	4.7e-006	0
bin	4.8e-006	0
bin	4.9e-006	0
bin	5e-006	0
bin	5.1e-006	0
bin	5.2e-006	0
bin	5.3e-006	0
bin	5.4e-006	0
bin	5.5e-006	0
bin	5.6e-006	0
bin	5.7e-006	0
bin	5.8e-006	0
bin	5.9e-006	0
bin	6e-006	0
bin	6.1e-006	0
bin	6.2e-006	0
bin	6.3e-006	0
bin	6.4e-006	0
bin	6.5e-006	0
bin	6.6e-006	0
bin	6.7e-006	1
bin	6.8e-006	0
bin	6.9e-006	0
bin	7e-006	0
bin	7.1e-006	0
bin	7.2e-006	0
bin	7.3e-006	0
bin	7.4e-006	0
bin	7.5e-006	0
bin	7.6e-006	0
bin	7.7e-006	0
bin	7.8e-006	0
bin	7.9e-006	0
bin	8e-006	0
bin	8.1e-006	0
bin	8.2e-006	0
bin	8.3e-006	0
bin	8.4e-006	0
scalar ExperimentNetwork1.bot2[0].eth[0].mac.queue queueLength:max 40
attr interpolationmode sample-hold
attr source "count(packetPushed) - count(packetPopped) - count(packetRemoved) - count(packetDropped)"
attr title "queue length, max"
scalar ExperimentNetwork1.bot2[0].eth[0].mac.queue queueLength:timeavg 19.255100666501
attr interpolationmode sample-hold
attr source "count(packetPushed) - count(packetPopped) - count(packetRemoved) - count(packetDropped)"
attr title "queue length, timeavg"
scalar ExperimentNetwork1.bot2[0].eth[0].mac.queue packetPushed:count 43
attr interpolationmode none
attr title "packet pushed, count"
scalar ExperimentNetwork1.bot2[0].eth[0].mac.queue packetPushed:sum(packetBytes) 18746
attr interpolationmode none
attr title "packet pushed, sum(packetBytes)"
scalar ExperimentNetwork1.bot2[0].eth[0].mac.queue packetDropQueueOverflow:count 0
attr interpolationmode none
attr source packetDropReasonIsQueueOverflow(packetDropped)
attr title "packet drops: queue overflow, count"
scalar ExperimentNetwork1.bot2[0].eth[0].mac.queue packetDropQueueOverflow:sum(packetBytes) 0
attr interpolationmode none
attr source packetDropReasonIsQueueOverflow(packetDropped)
attr title "packet drops: queue overflow, sum(packetBytes)"
scalar ExperimentNetwork1.bot2[0].eth[0].mac.queue packetRemoved:count 0
attr interpolationmode none
attr title "packets removed, count"
scalar ExperimentNetwork1.bot2[0].eth[0].mac.queue packetRemoved:sum(packetBytes) 0
attr interpolationmode none
attr title "packets removed, sum(packetBytes)"
scalar ExperimentNetwork1.bot2[0].eth[0].mac "simulated time" 0.000132107447
scalar ExperimentNetwork1.bot2[0].eth[0].mac full-duplex 1
scalar ExperimentNetwork1.bot2[0].eth[0].mac "frames/sec sent" 15139.191963947
scalar ExperimentNetwork1.bot2[0].eth[0].mac "frames/sec rcvd" 7569.5959819737
scalar ExperimentNetwork1.bot2[0].eth[0].mac "bits/sec sent" 7751266.285541
scalar ExperimentNetwork1.bot2[0].eth[0].mac "bits/sec rcvd" 3875633.1427705
scalar ExperimentNetwork1.bot2[0].eth[0].mac "rx channel idle (%)" 100
scalar ExperimentNetwork1.bot2[0].eth[0].mac "rx channel utilization (%)" 0
scalar ExperimentNetwork1.bot2[0].eth[0].mac txPk:count 2
attr interpolationmode none
attr source packetSentToLower
attr title "packets transmitted, count"
scalar ExperimentNetwork1.bot2[0].eth[0].mac txPk:sum(packetBytes) 128
attr interpolationmode none
attr source packetSentToLower
attr title "packets transmitted, sum(packetBytes)"
scalar ExperimentNetwork1.bot2[0].eth[0].mac packetReceivedFromUpper:count 43
attr interpolationmode none
attr source packetReceivedFromUpper
attr title "packet bytes from higher layer, count"
scalar ExperimentNetwork1.bot2[0].eth[0].mac packetReceivedFromUpper:sum(packetBytes) 18542
attr interpolationmode none
attr source packetReceivedFromUpper
attr title "packet bytes from higher layer, sum(packetBytes)"
scalar ExperimentNetwork1.bot2[0].eth[0].mac passedUpPk:count 1
attr interpolationmode none
attr source packetSentToUpper
attr title "packets passed to higher layer, count"
scalar ExperimentNetwork1.bot2[0].eth[0].mac passedUpPk:sum(packetBytes) 64
attr interpolationmode none
attr source packetSentToUpper
attr title "packets passed to higher layer, sum(packetBytes)"
scalar ExperimentNetwork1.bot2[0].eth[0].mac packetDropIncorrectlyReceived:count 0
attr interpolationmode none
attr source packetDropReasonIsIncorrectlyReceived(packetDropped)
attr title "packet drop: incorrectly received, count"
scalar ExperimentNetwork1.bot2[0].eth[0].mac packetDropIncorrectlyReceived:sum(packetBytes) 0
attr interpolationmode none
attr source packetDropReasonIsIncorrectlyReceived(packetDropped)
attr title "packet drop: incorrectly received, sum(packetBytes)"
scalar ExperimentNetwork1.bot2[0].eth[0].mac packetDropInterfaceDown:count 0
attr interpolationmode none
attr source packetDropReasonIsInterfaceDown(packetDropped)
attr title "packet drop: interface down, count"
scalar ExperimentNetwork1.bot2[0].eth[0].mac packetDropInterfaceDown:sum(packetBytes) 0
attr interpolationmode none
attr source packetDropReasonIsInterfaceDown(packetDropped)
attr title "packet drop: interface down, sum(packetBytes)"
scalar ExperimentNetwork1.bot2[0].eth[0].mac packetDropNotAddressedToUs:count 0
attr interpolationmode none
attr source packetDropReasonIsNotAddressedToUs(packetDropped)
attr title "packet drop: not addressed to us, count"
scalar ExperimentNetwork1.bot2[0].eth[0].mac packetDropNotAddressedToUs:sum(packetBytes) 0
attr interpolationmode none
attr source packetDropReasonIsNotAddressedToUs(packetDropped)
attr title "packet drop: not addressed to us, sum(packetBytes)"
scalar ExperimentNetwork1.bot2[0].eth[0].mac rxPausePkUnits:count 0
attr interpolationmode none
attr title "pause units received, count"
scalar ExperimentNetwork1.bot2[0].eth[0].mac rxPausePkUnits:sum 0
attr interpolationmode none
attr title "pause units received, sum"
scalar ExperimentNetwork1.bot2[0].eth[0].mac txPausePkUnits:count 0
attr interpolationmode none
attr title "pause units sent, count"
scalar ExperimentNetwork1.bot2[0].eth[0].mac txPausePkUnits:sum 0
attr interpolationmode none
attr title "pause units sent, sum"
scalar ExperimentNetwork1.bot2[0].eth[0].mac rxPkOk:count 1
attr interpolationmode none
attr source rxPkOk
attr title "packets received OK, count"
scalar ExperimentNetwork1.bot2[0].eth[0].mac rxPkOk:sum(packetBytes) 64
attr interpolationmode none
attr source rxPkOk
attr title "packets received OK, sum(packetBytes)"
scalar ExperimentNetwork1.bot2[0].eth[0].encap pauseSent:count 0
attr title "pause sent, count"
scalar ExperimentNetwork1.bot2[0].eth[0].encap pauseSent:sum 0
attr title "pause sent, sum"
scalar ExperimentNetwork1.bot2[0].eth[0].encap decapPk:count 1
attr interpolationmode none
attr source decapPk
attr title "packets decapsulated, count"
scalar ExperimentNetwork1.bot2[0].eth[0].encap decapPk:sum(packetBytes) 46
attr interpolationmode none
attr source decapPk
attr title "packets decapsulated, sum(packetBytes)"
scalar ExperimentNetwork1.bot2[0].eth[0].encap encapPk:count 43
attr interpolationmode none
attr source encapPk
attr title "packets encapsulated, count"
scalar ExperimentNetwork1.bot2[0].eth[0].encap encapPk:sum(packetBytes) 17768
attr interpolationmode none
attr source encapPk
attr title "packets encapsulated, sum(packetBytes)"
scalar ExperimentNetwork1.bot2[0].ipv4.ip packetDropAddressResolutionFailed:count 0
attr interpolationmode none
attr source packetDropReasonIsAddressResolutionFailed(packetDropped)
attr title "packet drop: address resolution failed, count"
scalar ExperimentNetwork1.bot2[0].ipv4.ip packetDropAddressResolutionFailed:sum(packetBytes) 0
attr interpolationmode none
attr source packetDropReasonIsAddressResolutionFailed(packetDropped)
attr title "packet drop: address resolution failed, sum(packetBytes)"
scalar ExperimentNetwork1.bot2[0].ipv4.ip packetDropHopLimitReached:count 0
attr interpolationmode none
attr source packetDropReasonIsHopLimitReached(packetDropped)
attr title "packet drop: hop limit reached, count"
scalar ExperimentNetwork1.bot2[0].ipv4.ip packetDropHopLimitReached:sum(packetBytes) 0
attr interpolationmode none
attr source packetDropReasonIsHopLimitReached(packetDropped)
attr title "packet drop: hop limit reached, sum(packetBytes)"
scalar ExperimentNetwork1.bot2[0].ipv4.ip packetDropForwardingDisabled:count 0
attr interpolationmode none
attr source packetDropReasonIsForwardingDisabled(packetDropped)
attr title "packet drop: forwarding disabled, count"
scalar ExperimentNetwork1.bot2[0].ipv4.ip packetDropForwardingDisabled:sum(packetBytes) 0
attr interpolationmode none
attr source packetDropReasonIsForwardingDisabled(packetDropped)
attr title "packet drop: forwarding disabled, sum(packetBytes)"
scalar ExperimentNetwork1.bot2[0].ipv4.ip packetDropNoInterfaceFound:count 0
attr interpolationmode none
attr source packetDropReasonIsNoInterfaceFound(packetDropped)
attr title "packet drop: no interface found, count"
scalar ExperimentNetwork1.bot2[0].ipv4.ip packetDropNoInterfaceFound:sum(packetBytes) 0
attr interpolationmode none
attr source packetDropReasonIsNoInterfaceFound(packetDropped)
attr title "packet drop: no interface found, sum(packetBytes)"
scalar ExperimentNetwork1.bot2[0].ipv4.ip packetDropNoRouteFound:count 0
attr interpolationmode none
attr source packetDropReasonIsNoRouteFound(packetDropped)
attr title "packet drop: no route found, count"
scalar ExperimentNetwork1.bot2[0].ipv4.ip packetDropNoRouteFound:sum(packetBytes) 0
attr interpolationmode none
attr source packetDropReasonIsNoRouteFound(packetDropped)
attr title "packet drop: no route found, sum(packetBytes)"
scalar ExperimentNetwork1.bot2[0].ipv4.ip packetDropUndefined:count 0
attr interpolationmode none
attr source packetDropReasonIsUndefined(packetDropped)
attr title "packet drop: undefined, count"
scalar ExperimentNetwork1.bot2[0].ipv4.ip packetDropUndefined:sum(packetBytes) 0
attr interpolationmode none
attr source packetDropReasonIsUndefined(packetDropped)
attr title "packet drop: undefined, sum(packetBytes)"
scalar ExperimentNetwork1.bot2[0].ipv4.arp arpReplySent:count 0
attr source arpReplySent
attr title "ARP replies sent, count"
scalar ExperimentNetwork1.bot2[0].ipv4.arp arpReplySent:sum(packetBytes) 0
attr source arpReplySent
attr title "ARP replies sent, sum(packetBytes)"
scalar ExperimentNetwork1.bot2[0].ipv4.arp arpRequestSent:count 1
attr source arpRequestSent
attr title "ARP request sent, count"
scalar ExperimentNetwork1.bot2[0].ipv4.arp arpRequestSent:sum(packetBytes) 28
attr source arpRequestSent
attr title "ARP request sent, sum(packetBytes)"
scalar ExperimentNetwork1.bot2[0].ipv4.arp arpResolutionFailed:count 0
attr title "ARP failed resolutions, count"
scalar ExperimentNetwork1.bot2[0].ipv4.arp arpResolutionCompleted:count 1
attr title "ARP completed resolutions, count"
scalar ExperimentNetwork1.bot2[0].ipv4.arp arpResolutionInitiated:count 1
attr title "ARP initiated resolutions, count"
scalar ExperimentNetwork1.bot2[0].udp packetReceived:count 0
attr interpolationmode none
attr source packetReceived
attr title "packets received, count"
scalar ExperimentNetwork1.bot2[0].udp packetReceived:sum(packetBytes) 0
attr interpolationmode none
attr source packetReceived
attr title "packets received, sum(packetBytes)"
scalar ExperimentNetwork1.bot2[0].udp packetSent:count 0
attr interpolationmode none
attr source packetSent
attr title "packets sent, count"
scalar ExperimentNetwork1.bot2[0].udp packetSent:sum(packetBytes) 0
attr interpolationmode none
attr source packetSent
attr title "packets sent, sum(packetBytes)"
scalar ExperimentNetwork1.bot2[0].udp passedUpPk:count 0
attr interpolationmode none
attr source packetSentToUpper
attr title "packets passed up, count"
scalar ExperimentNetwork1.bot2[0].udp droppedPkWrongPort:count 0
attr interpolationmode none
attr source packetDropReasonIsNoPortFound(packetDropped)
attr title "packets dropped (wrong port), count"
scalar ExperimentNetwork1.bot2[0].udp droppedPkBadChecksum:count 0
attr interpolationmode none
attr source packetDropReasonIsIncorrectlyReceived(packetDropped)
attr title "packets dropped (checksum error), count"
scalar ExperimentNetwork1.bot2[0].pg[0] "packets sent" 11
scalar ExperimentNetwork1.bot2[0].pg[1] "packets sent" 10
scalar ExperimentNetwork1.bot2[0].pg[2] "packets sent" 10
scalar ExperimentNetwork1.bot2[0].pg[3] "packets sent" 11
scalar ExperimentNetwork1.bot2[1].lo[0].lo rcvdPkFromHl:count 0
attr interpolationmode none
attr source packetReceivedFromUpper
attr title "packets received from higher layer, count"
scalar ExperimentNetwork1.bot2[1].lo[0].lo rcvdPkFromHl:sum(packetBytes) 0
attr interpolationmode none
attr source packetReceivedFromUpper
attr title "packets received from higher layer, sum(packetBytes)"
scalar ExperimentNetwork1.bot2[1].lo[0].lo passedUpPk:count 0
attr interpolationmode none
attr source packetSentToUpper
attr title "packets passed to higher layer, count"
scalar ExperimentNetwork1.bot2[1].lo[0].lo passedUpPk:sum(packetBytes) 0
attr interpolationmode none
attr source packetSentToUpper
attr title "packets passed to higher layer, sum(packetBytes)"
scalar ExperimentNetwork1.bot2[1].eth[0].mac.queue packetPopped:count 5
attr interpolationmode none
attr title "packet popped, count"
scalar ExperimentNetwork1.bot2[1].eth[0].mac.queue packetPopped:sum(packetBytes) 1774
attr interpolationmode none
attr title "packet popped, sum(packetBytes)"
statistic ExperimentNetwork1.bot2[1].eth[0].mac.queue queueingTime:histogram
field count 5
field mean 7.3410062e-006
field stddev 7.5841642691988e-006
field min 0
field max 1.6545031e-005
field sum 3.6705031e-005
field sqrsum 4.9953005079096e-010
attr interpolationmode none
attr source queueingTime(packetPopped)
attr title "queueing times, histogram"
attr unit s
bin	-inf	0
bin	0	2
bin	2e-007	0
bin	4e-007	0
bin	6e-007	0
bin	8e-007	0
bin	1e-006	0
bin	1.2e-006	0
bin	1.4e-006	0
bin	1.6e-006	0
bin	1.8e-006	0
bin	2e-006	0
bin	2.2e-006	0
bin	2.4e-006	0
bin	2.6e-006	0
bin	2.8e-006	0
bin	3e-006	0
bin	3.2e-006	0
bin	3.4e-006	0
bin	3.6e-006	0
bin	3.8e-006	0
bin	4e-006	0
bin	4.2e-006	0
bin	4.4e-006	0
bin	4.6e-006	0
bin	4.8e-006	0
bin	5e-006	0
bin	5.2e-006	0
bin	5.4e-006	0
bin	5.6e-006	0
bin	5.8e-006	0
bin	6e-006	0
bin	6.2e-006	0
bin	6.4e-006	0
bin	6.6e-006	1
bin	6.8e-006	0
bin	7e-006	0
bin	7.2e-006	0
bin	7.4e-006	0
bin	7.6e-006	0
bin	7.8e-006	0
bin	8e-006	0
bin	8.2e-006	0
bin	8.4e-006	0
bin	8.6e-006	0
bin	8.8e-006	0
bin	9e-006	0
bin	9.2e-006	0
bin	9.4e-006	0
bin	9.6e-006	0
bin	9.8e-006	0
bin	1e-005	0
bin	1.02e-005	0
bin	1.04e-005	0
bin	1.06e-005	0
bin	1.08e-005	0
bin	1.1e-005	0
bin	1.12e-005	0
bin	1.14e-005	0
bin	1.16e-005	0
bin	1.18e-005	0
bin	1.2e-005	0
bin	1.22e-005	0
bin	1.24e-005	0
bin	1.26e-005	0
bin	1.28e-005	0
bin	1.3e-005	0
bin	1.32e-005	0
bin	1.34e-005	1
bin	1.36e-005	0
bin	1.38e-005	0
bin	1.4e-005	0
bin	1.42e-005	0
bin	1.44e-005	0
bin	1.46e-005	0
bin	1.48e-005	0
bin	1.5e-005	0
bin	1.52e-005	0
bin	1.54e-005	0
bin	1.56e-005	0
bin	1.58e-005	0
bin	1.6e-005	0
bin	1.62e-005	0
bin	1.64e-005	1
bin	1.66e-005	0
bin	1.68e-005	0
bin	1.7e-005	0
bin	1.72e-005	0
bin	1.74e-005	0
bin	1.76e-005	0
bin	1.78e-005	0
bin	1.8e-005	0
bin	1.82e-005	0
bin	1.84e-005	0
bin	1.86e-005	0
bin	1.88e-005	0
bin	1.9e-005	0
bin	1.92e-005	0
bin	1.94e-005	0
bin	1.96e-005	0
bin	1.98e-005	0
bin	2e-005	0
bin	2.02e-005	0
bin	2.04e-005	0
bin	2.06e-005	0
bin	2.08e-005	0
scalar ExperimentNetwork1.bot2[1].eth[0].mac.queue queueLength:max 40
attr interpolationmode sample-hold
attr source "count(packetPushed) - count(packetPopped) - count(packetRemoved) - count(packetDropped)"
attr title "queue length, max"
scalar ExperimentNetwork1.bot2[1].eth[0].mac.queue queueLength:timeavg 17.117387239979
attr interpolationmode sample-hold
attr source "count(packetPushed) - count(packetPopped) - count(packetRemoved) - count(packetDropped)"
attr title "queue length, timeavg"
scalar ExperimentNetwork1.bot2[1].eth[0].mac.queue packetPushed:count 45
attr interpolationmode none
attr title "packet pushed, count"
scalar ExperimentNetwork1.bot2[1].eth[0].mac.queue packetPushed:sum(packetBytes) 18874
attr interpolationmode none
attr title "packet pushed, sum(packetBytes)"
scalar ExperimentNetwork1.bot2[1].eth[0].mac.queue packetDropQueueOverflow:count 0
attr interpolationmode none
attr source packetDropReasonIsQueueOverflow(packetDropped)
attr title "packet drops: queue overflow, count"
scalar ExperimentNetwork1.bot2[1].eth[0].mac.queue packetDropQueueOverflow:sum(packetBytes) 0
attr interpolationmode none
attr source packetDropReasonIsQueueOverflow(packetDropped)
attr title "packet drops: queue overflow, sum(packetBytes)"
scalar ExperimentNetwork1.bot2[1].eth[0].mac.queue packetRemoved:count 0
attr interpolationmode none
attr title "packets removed, count"
scalar ExperimentNetwork1.bot2[1].eth[0].mac.queue packetRemoved:sum(packetBytes) 0
attr interpolationmode none
attr title "packets removed, sum(packetBytes)"
scalar ExperimentNetwork1.bot2[1].eth[0].mac "simulated time" 0.000132107447
scalar ExperimentNetwork1.bot2[1].eth[0].mac full-duplex 1
scalar ExperimentNetwork1.bot2[1].eth[0].mac "frames/sec sent" 30278.383927895
scalar ExperimentNetwork1.bot2[1].eth[0].mac "frames/sec rcvd" 7569.5959819737
scalar ExperimentNetwork1.bot2[1].eth[0].mac "bits/sec sent" 15502532.571082
scalar ExperimentNetwork1.bot2[1].eth[0].mac "bits/sec rcvd" 3875633.1427705
scalar ExperimentNetwork1.bot2[1].eth[0].mac "rx channel idle (%)" 100
scalar ExperimentNetwork1.bot2[1].eth[0].mac "rx channel utilization (%)" 0
scalar ExperimentNetwork1.bot2[1].eth[0].mac txPk:count 4
attr interpolationmode none
attr source packetSentToLower
attr title "packets transmitted, count"
scalar ExperimentNetwork1.bot2[1].eth[0].mac txPk:sum(packetBytes) 256
attr interpolationmode none
attr source packetSentToLower
attr title "packets transmitted, sum(packetBytes)"
scalar ExperimentNetwork1.bot2[1].eth[0].mac packetReceivedFromUpper:count 45
attr interpolationmode none
attr source packetReceivedFromUpper
attr title "packet bytes from higher layer, count"
scalar ExperimentNetwork1.bot2[1].eth[0].mac packetReceivedFromUpper:sum(packetBytes) 18658
attr interpolationmode none
attr source packetReceivedFromUpper
attr title "packet bytes from higher layer, sum(packetBytes)"
scalar ExperimentNetwork1.bot2[1].eth[0].mac passedUpPk:count 1
attr interpolationmode none
attr source packetSentToUpper
attr title "packets passed to higher layer, count"
scalar ExperimentNetwork1.bot2[1].eth[0].mac passedUpPk:sum(packetBytes) 64
attr interpolationmode none
attr source packetSentToUpper
attr title "packets passed to higher layer, sum(packetBytes)"
scalar ExperimentNetwork1.bot2[1].eth[0].mac packetDropIncorrectlyReceived:count 0
attr interpolationmode none
attr source packetDropReasonIsIncorrectlyReceived(packetDropped)
attr title "packet drop: incorrectly received, count"
scalar ExperimentNetwork1.bot2[1].eth[0].mac packetDropIncorrectlyReceived:sum(packetBytes) 0
attr interpolationmode none
attr source packetDropReasonIsIncorrectlyReceived(packetDropped)
attr title "packet drop: incorrectly received, sum(packetBytes)"
scalar ExperimentNetwork1.bot2[1].eth[0].mac packetDropInterfaceDown:count 0
attr interpolationmode none
attr source packetDropReasonIsInterfaceDown(packetDropped)
attr title "packet drop: interface down, count"
scalar ExperimentNetwork1.bot2[1].eth[0].mac packetDropInterfaceDown:sum(packetBytes) 0
attr interpolationmode none
attr source packetDropReasonIsInterfaceDown(packetDropped)
attr title "packet drop: interface down, sum(packetBytes)"
scalar ExperimentNetwork1.bot2[1].eth[0].mac packetDropNotAddressedToUs:count 0
attr interpolationmode none
attr source packetDropReasonIsNotAddressedToUs(packetDropped)
attr title "packet drop: not addressed to us, count"
scalar ExperimentNetwork1.bot2[1].eth[0].mac packetDropNotAddressedToUs:sum(packetBytes) 0
attr interpolationmode none
attr source packetDropReasonIsNotAddressedToUs(packetDropped)
attr title "packet drop: not addressed to us, sum(packetBytes)"
scalar ExperimentNetwork1.bot2[1].eth[0].mac rxPausePkUnits:count 0
attr interpolationmode none
attr title "pause units received, count"
scalar ExperimentNetwork1.bot2[1].eth[0].mac rxPausePkUnits:sum 0
attr interpolationmode none
attr title "pause units received, sum"
scalar ExperimentNetwork1.bot2[1].eth[0].mac txPausePkUnits:count 0
attr interpolationmode none
attr title "pause units sent, count"
scalar ExperimentNetwork1.bot2[1].eth[0].mac txPausePkUnits:sum 0
attr interpolationmode none
attr title "pause units sent, sum"
scalar ExperimentNetwork1.bot2[1].eth[0].mac rxPkOk:count 1
attr interpolationmode none
attr source rxPkOk
attr title "packets received OK, count"
scalar ExperimentNetwork1.bot2[1].eth[0].mac rxPkOk:sum(packetBytes) 64
attr interpolationmode none
attr source rxPkOk
attr title "packets received OK, sum(packetBytes)"
scalar ExperimentNetwork1.bot2[1].eth[0].encap pauseSent:count 0
attr title "pause sent, count"
scalar ExperimentNetwork1.bot2[1].eth[0].encap pauseSent:sum 0
attr title "pause sent, sum"
scalar ExperimentNetwork1.bot2[1].eth[0].encap decapPk:count 1
attr interpolationmode none
attr source decapPk
attr title "packets decapsulated, count"
scalar ExperimentNetwork1.bot2[1].eth[0].encap decapPk:sum(packetBytes) 46
attr interpolationmode none
attr source decapPk
attr title "packets decapsulated, sum(packetBytes)"
scalar ExperimentNetwork1.bot2[1].eth[0].encap encapPk:count 45
attr interpolationmode none
attr source encapPk
attr title "packets encapsulated, count"
scalar ExperimentNetwork1.bot2[1].eth[0].encap encapPk:sum(packetBytes) 17848
attr interpolationmode none
attr source encapPk
attr title "packets encapsulated, sum(packetBytes)"
scalar ExperimentNetwork1.bot2[1].ipv4.ip packetDropAddressResolutionFailed:count 0
attr interpolationmode none
attr source packetDropReasonIsAddressResolutionFailed(packetDropped)
attr title "packet drop: address resolution failed, count"
scalar ExperimentNetwork1.bot2[1].ipv4.ip packetDropAddressResolutionFailed:sum(packetBytes) 0
attr interpolationmode none
attr source packetDropReasonIsAddressResolutionFailed(packetDropped)
attr title "packet drop: address resolution failed, sum(packetBytes)"
scalar ExperimentNetwork1.bot2[1].ipv4.ip packetDropHopLimitReached:count 0
attr interpolationmode none
attr source packetDropReasonIsHopLimitReached(packetDropped)
attr title "packet drop: hop limit reached, count"
scalar ExperimentNetwork1.bot2[1].ipv4.ip packetDropHopLimitReached:sum(packetBytes) 0
attr interpolationmode none
attr source packetDropReasonIsHopLimitReached(packetDropped)
attr title "packet drop: hop limit reached, sum(packetBytes)"
scalar ExperimentNetwork1.bot2[1].ipv4.ip packetDropForwardingDisabled:count 0
attr interpolationmode none
attr source packetDropReasonIsForwardingDisabled(packetDropped)
attr title "packet drop: forwarding disabled, count"
scalar ExperimentNetwork1.bot2[1].ipv4.ip packetDropForwardingDisabled:sum(packetBytes) 0
attr interpolationmode none
attr source packetDropReasonIsForwardingDisabled(packetDropped)
attr title "packet drop: forwarding disabled, sum(packetBytes)"
scalar ExperimentNetwork1.bot2[1].ipv4.ip packetDropNoInterfaceFound:count 0
attr interpolationmode none
attr source packetDropReasonIsNoInterfaceFound(packetDropped)
attr title "packet drop: no interface found, count"
scalar ExperimentNetwork1.bot2[1].ipv4.ip packetDropNoInterfaceFound:sum(packetBytes) 0
attr interpolationmode none
attr source packetDropReasonIsNoInterfaceFound(packetDropped)
attr title "packet drop: no interface found, sum(packetBytes)"
scalar ExperimentNetwork1.bot2[1].ipv4.ip packetDropNoRouteFound:count 0
attr interpolationmode none
attr source packetDropReasonIsNoRouteFound(packetDropped)
attr title "packet drop: no route found, count"
scalar ExperimentNetwork1.bot2[1].ipv4.ip packetDropNoRouteFound:sum(packetBytes) 0
attr interpolationmode none
attr source packetDropReasonIsNoRouteFound(packetDropped)
attr title "packet drop: no route found, sum(packetBytes)"
scalar ExperimentNetwork1.bot2[1].ipv4.ip packetDropUndefined:count 0
attr interpolationmode none
attr source packetDropReasonIsUndefined(packetDropped)
attr title "packet drop: undefined, count"
scalar ExperimentNetwork1.bot2[1].ipv4.ip packetDropUndefined:sum(packetBytes) 0
attr interpolationmode none
attr source packetDropReasonIsUndefined(packetDropped)
attr title "packet drop: undefined, sum(packetBytes)"
scalar ExperimentNetwork1.bot2[1].ipv4.arp arpReplySent:count 0
attr source arpReplySent
attr title "ARP replies sent, count"
scalar ExperimentNetwork1.bot2[1].ipv4.arp arpReplySent:sum(packetBytes) 0
attr source arpReplySent
attr title "ARP replies sent, sum(packetBytes)"
scalar ExperimentNetwork1.bot2[1].ipv4.arp arpRequestSent:count 1
attr source arpRequestSent
attr title "ARP request sent, count"
scalar ExperimentNetwork1.bot2[1].ipv4.arp arpRequestSent:sum(packetBytes) 28
attr source arpRequestSent
attr title "ARP request sent, sum(packetBytes)"
scalar ExperimentNetwork1.bot2[1].ipv4.arp arpResolutionFailed:count 0
attr title "ARP failed resolutions, count"
scalar ExperimentNetwork1.bot2[1].ipv4.arp arpResolutionCompleted:count 1
attr title "ARP completed resolutions, count"
scalar ExperimentNetwork1.bot2[1].ipv4.arp arpResolutionInitiated:count 1
attr title "ARP initiated resolutions, count"
scalar ExperimentNetwork1.bot2[1].udp packetReceived:count 0
attr interpolationmode none
attr source packetReceived
attr title "packets received, count"
scalar ExperimentNetwork1.bot2[1].udp packetReceived:sum(packetBytes) 0
attr interpolationmode none
attr source packetReceived
attr title "packets received, sum(packetBytes)"
scalar ExperimentNetwork1.bot2[1].udp packetSent:count 0
attr interpolationmode none
attr source packetSent
attr title "packets sent, count"
scalar ExperimentNetwork1.bot2[1].udp packetSent:sum(packetBytes) 0
attr interpolationmode none
attr source packetSent
attr title "packets sent, sum(packetBytes)"
scalar ExperimentNetwork1.bot2[1].udp passedUpPk:count 0
attr interpolationmode none
attr source packetSentToUpper
attr title "packets passed up, count"
scalar ExperimentNetwork1.bot2[1].udp droppedPkWrongPort:count 0
attr interpolationmode none
attr source packetDropReasonIsNoPortFound(packetDropped)
attr title "packets dropped (wrong port), count"
scalar ExperimentNetwork1.bot2[1].udp droppedPkBadChecksum:count 0
attr interpolationmode none
attr source packetDropReasonIsIncorrectlyReceived(packetDropped)
attr title "packets dropped (checksum error), count"
scalar ExperimentNetwork1.bot2[1].pg[0] "packets sent" 11
scalar ExperimentNetwork1.bot2[1].pg[1] "packets sent" 12
scalar ExperimentNetwork1.bot2[1].pg[2] "packets sent" 9
scalar ExperimentNetwork1.bot2[1].pg[3] "packets sent" 12
scalar ExperimentNetwork1.bot3[0].lo[0].lo rcvdPkFromHl:count 0
attr interpolationmode none
attr source packetReceivedFromUpper
attr title "packets received from higher layer, count"
scalar ExperimentNetwork1.bot3[0].lo[0].lo rcvdPkFromHl:sum(packetBytes) 0
attr interpolationmode none
attr source packetReceivedFromUpper
attr title "packets received from higher layer, sum(packetBytes)"
scalar ExperimentNetwork1.bot3[0].lo[0].lo passedUpPk:count 0
attr interpolationmode none
attr source packetSentToUpper
attr title "packets passed to higher layer, count"
scalar ExperimentNetwork1.bot3[0].lo[0].lo passedUpPk:sum(packetBytes) 0
attr interpolationmode none
attr source packetSentToUpper
attr title "packets passed to higher layer, sum(packetBytes)"
scalar ExperimentNetwork1.bot3[0].eth[0].mac.queue packetPopped:count 10
attr interpolationmode none
attr title "packet popped, count"
scalar ExperimentNetwork1.bot3[0].eth[0].mac.queue packetPopped:sum(packetBytes) 2094
attr interpolationmode none
attr title "packet popped, sum(packetBytes)"
statistic ExperimentNetwork1.bot3[0].eth[0].mac.queue queueingTime:histogram
field count 10
field mean 1.95316571e-005
field stddev 1.3915490379996e-005
field min 0
field max 3.7739741e-005
field sum 0.000195316571
field sqrsum 5.5576241433615e-009
attr interpolationmode none
attr source queueingTime(packetPopped)
attr title "queueing times, histogram"
attr unit s
bin	-inf	0
bin	0	2
bin	1e-006	0
bin	2e-006	0
bin	3e-006	0
bin	4e-006	0
bin	5e-006	0
bin	6e-006	1
bin	7e-006	0
bin	8e-006	0
bin	9e-006	0
bin	1e-005	0
bin	1.1e-005	0
bin	1.2e-005	0
bin	1.3e-005	1
bin	1.4e-005	0
bin	1.5e-005	0
bin	1.6e-005	0
bin	1.7e-005	0
bin	1.8e-005	0
bin	1.9e-005	0
bin	2e-005	1
bin	2.1e-005	0
bin	2.2e-005	0
bin	2.3e-005	0
bin	2.4e-005	1
bin	2.5e-005	0
bin	2.6e-005	0
bin	2.7e-005	1
bin	2.8e-005	0
bin	2.9e-005	0
bin	3e-005	0
bin	3.1e-005	1
bin	3.2e-005	0
bin	3.3e-005	0
bin	3.4e-005	1
bin	3.5e-005	0
bin	3.6e-005	0
bin	3.7e-005	1
bin	3.8e-005	0
bin	3.9e-005	0
bin	4e-005	0
bin	4.1e-005	0
bin	4.2e-005	0
bin	4.3e-005	0
bin	4.4e-005	0
bin	4.5e-005	0
bin	4.6e-005	0
bin	4.7e-005	0
bin	4.8e-005	0
scalar ExperimentNetwork1.bot3[0].eth[0].mac.queue queueLength:max 34
attr interpolationmode sample-hold
attr source "count(packetPushed) - count(packetPopped) - count(packetRemoved) - count(packetDropped)"
attr title "queue length, max"
scalar ExperimentNetwork1.bot3[0].eth[0].mac.queue queueLength:timeavg 14.350391549299
attr interpolationmode sample-hold
attr source "count(packetPushed) - count(packetPopped) - count(packetRemoved) - count(packetDropped)"
attr title "queue length, timeavg"
scalar ExperimentNetwork1.bot3[0].eth[0].mac.queue packetPushed:count 44
attr interpolationmode none
attr title "packet pushed, count"
scalar ExperimentNetwork1.bot3[0].eth[0].mac.queue packetPushed:sum(packetBytes) 15902
attr interpolationmode none
attr title "packet pushed, sum(packetBytes)"
scalar ExperimentNetwork1.bot3[0].eth[0].mac.queue packetDropQueueOverflow:count 0
attr interpolationmode none
attr source packetDropReasonIsQueueOverflow(packetDropped)
attr title "packet drops: queue overflow, count"
scalar ExperimentNetwork1.bot3[0].eth[0].mac.queue packetDropQueueOverflow:sum(packetBytes) 0
attr interpolationmode none
attr source packetDropReasonIsQueueOverflow(packetDropped)
attr title "packet drops: queue overflow, sum(packetBytes)"
scalar ExperimentNetwork1.bot3[0].eth[0].mac.queue packetRemoved:count 0
attr interpolationmode none
attr title "packets removed, count"
scalar ExperimentNetwork1.bot3[0].eth[0].mac.queue packetRemoved:sum(packetBytes) 0
attr interpolationmode none
attr title "packets removed, sum(packetBytes)"
scalar ExperimentNetwork1.bot3[0].eth[0].mac "simulated time" 0.000132107447
scalar ExperimentNetwork1.bot3[0].eth[0].mac full-duplex 1
scalar ExperimentNetwork1.bot3[0].eth[0].mac "frames/sec sent" 68126.363837763
scalar ExperimentNetwork1.bot3[0].eth[0].mac "frames/sec rcvd" 7569.5959819737
scalar ExperimentNetwork1.bot3[0].eth[0].mac "bits/sec sent" 34880698.284935
scalar ExperimentNetwork1.bot3[0].eth[0].mac "bits/sec rcvd" 3875633.1427705
scalar ExperimentNetwork1.bot3[0].eth[0].mac "rx channel idle (%)" 100
scalar ExperimentNetwork1.bot3[0].eth[0].mac "rx channel utilization (%)" 0
scalar ExperimentNetwork1.bot3[0].eth[0].mac txPk:count 9
attr interpolationmode none
attr source packetSentToLower
attr title "packets transmitted, count"
scalar ExperimentNetwork1.bot3[0].eth[0].mac txPk:sum(packetBytes) 576
attr interpolationmode none
attr source packetSentToLower
attr title "packets transmitted, sum(packetBytes)"
scalar ExperimentNetwork1.bot3[0].eth[0].mac packetReceivedFromUpper:count 44
attr interpolationmode none
attr source packetReceivedFromUpper
attr title "packet bytes from higher layer, count"
scalar ExperimentNetwork1.bot3[0].eth[0].mac packetReceivedFromUpper:sum(packetBytes) 15680
attr interpolationmode none
attr source packetReceivedFromUpper
attr title "packet bytes from higher layer, sum(packetBytes)"
scalar ExperimentNetwork1.bot3[0].eth[0].mac passedUpPk:count 1
attr interpolationmode none
attr source packetSentToUpper
attr title "packets passed to higher layer, count"
scalar ExperimentNetwork1.bot3[0].eth[0].mac passedUpPk:sum(packetBytes) 64
attr interpolationmode none
attr source packetSentToUpper
attr title "packets passed to higher layer, sum(packetBytes)"
scalar ExperimentNetwork1.bot3[0].eth[0].mac packetDropIncorrectlyReceived:count 0
attr interpolationmode none
attr source packetDropReasonIsIncorrectlyReceived(packetDropped)
attr title "packet drop: incorrectly received, count"
scalar ExperimentNetwork1.bot3[0].eth[0].mac packetDropIncorrectlyReceived:sum(packetBytes) 0
attr interpolationmode none
attr source packetDropReasonIsIncorrectlyReceived(packetDropped)
attr title "packet drop: incorrectly received, sum(packetBytes)"
scalar ExperimentNetwork1.bot3[0].eth[0].mac packetDropInterfaceDown:count 0
attr interpolationmode none
attr source packetDropReasonIsInterfaceDown(packetDropped)
attr title "packet drop: interface down, count"
scalar ExperimentNetwork1.bot3[0].eth[0].mac packetDropInterfaceDown:sum(packetBytes) 0
attr interpolationmode none
attr source packetDropReasonIsInterfaceDown(packetDropped)
attr title "packet drop: interface down, sum(packetBytes)"
scalar ExperimentNetwork1.bot3[0].eth[0].mac packetDropNotAddressedToUs:count 0
attr interpolationmode none
attr source packetDropReasonIsNotAddressedToUs(packetDropped)
attr title "packet drop: not addressed to us, count"
scalar ExperimentNetwork1.bot3[0].eth[0].mac packetDropNotAddressedToUs:sum(packetBytes) 0
attr interpolationmode none
attr source packetDropReasonIsNotAddressedToUs(packetDropped)
attr title "packet drop: not addressed to us, sum(packetBytes)"
scalar ExperimentNetwork1.bot3[0].eth[0].mac rxPausePkUnits:count 0
attr interpolationmode none
attr title "pause units received, count"
scalar ExperimentNetwork1.bot3[0].eth[0].mac rxPausePkUnits:sum 0
attr interpolationmode none
attr title "pause units received, sum"
scalar ExperimentNetwork1.bot3[0].eth[0].mac txPausePkUnits:count 0
attr interpolationmode none
attr title "pause units sent, count"
scalar ExperimentNetwork1.bot3[0].eth[0].mac txPausePkUnits:sum 0
attr interpolationmode none
attr title "pause units sent, sum"
scalar ExperimentNetwork1.bot3[0].eth[0].mac rxPkOk:count 1
attr interpolationmode none
attr source rxPkOk
attr title "packets received OK, count"
scalar ExperimentNetwork1.bot3[0].eth[0].mac rxPkOk:sum(packetBytes) 64
attr interpolationmode none
attr source rxPkOk
attr title "packets received OK, sum(packetBytes)"
scalar ExperimentNetwork1.bot3[0].eth[0].encap pauseSent:count 0
attr title "pause sent, count"
scalar ExperimentNetwork1.bot3[0].eth[0].encap pauseSent:sum 0
attr title "pause sent, sum"
scalar ExperimentNetwork1.bot3[0].eth[0].encap decapPk:count 1
attr interpolationmode none
attr source decapPk
attr title "packets decapsulated, count"
scalar ExperimentNetwork1.bot3[0].eth[0].encap decapPk:sum(packetBytes) 46
attr interpolationmode none
attr source decapPk
attr title "packets decapsulated, sum(packetBytes)"
scalar ExperimentNetwork1.bot3[0].eth[0].encap encapPk:count 44
attr interpolationmode none
attr source encapPk
attr title "packets encapsulated, count"
scalar ExperimentNetwork1.bot3[0].eth[0].encap encapPk:sum(packetBytes) 14888
attr interpolationmode none
attr source encapPk
attr title "packets encapsulated, sum(packetBytes)"
scalar ExperimentNetwork1.bot3[0].ipv4.ip packetDropAddressResolutionFailed:count 0
attr interpolationmode none
attr source packetDropReasonIsAddressResolutionFailed(packetDropped)
attr title "packet drop: address resolution failed, count"
scalar ExperimentNetwork1.bot3[0].ipv4.ip packetDropAddressResolutionFailed:sum(packetBytes) 0
attr interpolationmode none
attr source packetDropReasonIsAddressResolutionFailed(packetDropped)
attr title "packet drop: address resolution failed, sum(packetBytes)"
scalar ExperimentNetwork1.bot3[0].ipv4.ip packetDropHopLimitReached:count 0
attr interpolationmode none
attr source packetDropReasonIsHopLimitReached(packetDropped)
attr title "packet drop: hop limit reached, count"
scalar ExperimentNetwork1.bot3[0].ipv4.ip packetDropHopLimitReached:sum(packetBytes) 0
attr interpolationmode none
attr source packetDropReasonIsHopLimitReached(packetDropped)
attr title "packet drop: hop limit reached, sum(packetBytes)"
scalar ExperimentNetwork1.bot3[0].ipv4.ip packetDropForwardingDisabled:count 0
attr interpolationmode none
attr source packetDropReasonIsForwardingDisabled(packetDropped)
attr title "packet drop: forwarding disabled, count"
scalar ExperimentNetwork1.bot3[0].ipv4.ip packetDropForwardingDisabled:sum(packetBytes) 0
attr interpolationmode none
attr source packetDropReasonIsForwardingDisabled(packetDropped)
attr title "packet drop: forwarding disabled, sum(packetBytes)"
scalar ExperimentNetwork1.bot3[0].ipv4.ip packetDropNoInterfaceFound:count 0
attr interpolationmode none
attr source packetDropReasonIsNoInterfaceFound(packetDropped)
attr title "packet drop: no interface found, count"
scalar ExperimentNetwork1.bot3[0].ipv4.ip packetDropNoInterfaceFound:sum(packetBytes) 0
attr interpolationmode none
attr source packetDropReasonIsNoInterfaceFound(packetDropped)
attr title "packet drop: no interface found, sum(packetBytes)"
scalar ExperimentNetwork1.bot3[0].ipv4.ip packetDropNoRouteFound:count 0
attr interpolationmode none
attr source packetDropReasonIsNoRouteFound(packetDropped)
attr title "packet drop: no route found, count"
scalar ExperimentNetwork1.bot3[0].ipv4.ip packetDropNoRouteFound:sum(packetBytes) 0
attr interpolationmode none
attr source packetDropReasonIsNoRouteFound(packetDropped)
attr title "packet drop: no route found, sum(packetBytes)"
scalar ExperimentNetwork1.bot3[0].ipv4.ip packetDropUndefined:count 0
attr interpolationmode none
attr source packetDropReasonIsUndefined(packetDropped)
attr title "packet drop: undefined, count"
scalar ExperimentNetwork1.bot3[0].ipv4.ip packetDropUndefined:sum(packetBytes) 0
attr interpolationmode none
attr source packetDropReasonIsUndefined(packetDropped)
attr title "packet drop: undefined, sum(packetBytes)"
scalar ExperimentNetwork1.bot3[0].ipv4.arp arpReplySent:count 0
attr source arpReplySent
attr title "ARP replies sent, count"
scalar ExperimentNetwork1.bot3[0].ipv4.arp arpReplySent:sum(packetBytes) 0
attr source arpReplySent
attr title "ARP replies sent, sum(packetBytes)"
scalar ExperimentNetwork1.bot3[0].ipv4.arp arpRequestSent:count 1
attr source arpRequestSent
attr title "ARP request sent, count"
scalar ExperimentNetwork1.bot3[0].ipv4.arp arpRequestSent:sum(packetBytes) 28
attr source arpRequestSent
attr title "ARP request sent, sum(packetBytes)"
scalar ExperimentNetwork1.bot3[0].ipv4.arp arpResolutionFailed:count 0
attr title "ARP failed resolutions, count"
scalar ExperimentNetwork1.bot3[0].ipv4.arp arpResolutionCompleted:count 1
attr title "ARP completed resolutions, count"
scalar ExperimentNetwork1.bot3[0].ipv4.arp arpResolutionInitiated:count 1
attr title "ARP initiated resolutions, count"
scalar ExperimentNetwork1.bot3[0].udp packetReceived:count 0
attr interpolationmode none
attr source packetReceived
attr title "packets received, count"
scalar ExperimentNetwork1.bot3[0].udp packetReceived:sum(packetBytes) 0
attr interpolationmode none
attr source packetReceived
attr title "packets received, sum(packetBytes)"
scalar ExperimentNetwork1.bot3[0].udp packetSent:count 0
attr interpolationmode none
attr source packetSent
attr title "packets sent, count"
scalar ExperimentNetwork1.bot3[0].udp packetSent:sum(packetBytes) 0
attr interpolationmode none
attr source packetSent
attr title "packets sent, sum(packetBytes)"
scalar ExperimentNetwork1.bot3[0].udp passedUpPk:count 0
attr interpolationmode none
attr source packetSentToUpper
attr title "packets passed up, count"
scalar ExperimentNetwork1.bot3[0].udp droppedPkWrongPort:count 0
attr interpolationmode none
attr source packetDropReasonIsNoPortFound(packetDropped)
attr title "packets dropped (wrong port), count"
scalar ExperimentNetwork1.bot3[0].udp droppedPkBadChecksum:count 0
attr interpolationmode none
attr source packetDropReasonIsIncorrectlyReceived(packetDropped)
attr title "packets dropped (checksum error), count"
scalar ExperimentNetwork1.bot3[0].pg[0] "packets sent" 9
scalar ExperimentNetwork1.bot3[0].pg[1] "packets sent" 12
scalar ExperimentNetwork1.bot3[0].pg[2] "packets sent" 11
scalar ExperimentNetwork1.bot3[0].pg[3] "packets sent" 11
scalar ExperimentNetwork1.bot3[1].lo[0].lo rcvdPkFromHl:count 0
attr interpolationmode none
attr source packetReceivedFromUpper
attr title "packets received from higher layer, count"
scalar ExperimentNetwork1.bot3[1].lo[0].lo rcvdPkFromHl:sum(packetBytes) 0
attr interpolationmode none
attr source packetReceivedFromUpper
attr title "packets received from higher layer, sum(packetBytes)"
scalar ExperimentNetwork1.bot3[1].lo[0].lo passedUpPk:count 0
attr interpolationmode none
attr source packetSentToUpper
attr title "packets passed to higher layer, count"
scalar ExperimentNetwork1.bot3[1].lo[0].lo passedUpPk:sum(packetBytes) 0
attr interpolationmode none
attr source packetSentToUpper
attr title "packets passed to higher layer, sum(packetBytes)"
scalar ExperimentNetwork1.bot3[1].eth[0].mac.queue packetPopped:count 6
attr interpolationmode none
attr title "packet popped, count"
scalar ExperimentNetwork1.bot3[1].eth[0].mac.queue packetPopped:sum(packetBytes) 1838
attr interpolationmode none
attr title "packet popped, sum(packetBytes)"
statistic ExperimentNetwork1.bot3[1].eth[0].mac.queue queueingTime:histogram
field count 6
field mean 1.1002229333333e-005
field stddev 1.0677320841596e-005
field min 0
field max 2.6030086e-005
field sum 6.6013376e-005
field sqrsum 1.2963202035915e-009
attr interpolationmode none
attr source queueingTime(packetPopped)
attr title "queueing times, histogram"
attr unit s
bin	-inf	0
bin	0	2
bin	5e-007	0
bin	1e-006	0
bin	1.5e-006	0
bin	2e-006	0
bin	2.5e-006	0
bin	3e-006	0
bin	3.5e-006	0
bin	4e-006	0
bin	4.5e-006	0
bin	5e-006	0
bin	5.5e-006	0
bin	6e-006	0
bin	6.5e-006	1
bin	7e-006	0
bin	7.5e-006	0
bin	8e-006	0
bin	8.5e-006	0
bin	9e-006	0
bin	9.5e-006	0
bin	1e-005	0
bin	1.05e-005	0
bin	1.1e-005	0
bin	1.15e-005	0
bin	1.2e-005	0
bin	1.25e-005	0
bin	1.3e-005	1
bin	1.35e-005	0
bin	1.4e-005	0
bin	1.45e-005	0
bin	1.5e-005	0
bin	1.55e-005	0
bin	1.6e-005	0
bin	1.65e-005	0
bin	1.7e-005	0
bin	1.75e-005	0
bin	1.8e-005	0
bin	1.85e-005	0
bin	1.9e-005	0
bin	1.95e-005	1
bin	2e-005	0
bin	2.05e-005	0
bin	2.1e-005	0
bin	2.15e-005	0
bin	2.2e-005	0
bin	2.25e-005	0
bin	2.3e-005	0
bin	2.35e-005	0
bin	2.4e-005	0
bin	2.45e-005	0
bin	2.5e-005	0
bin	2.55e-005	0
bin	2.6e-005	1
bin	2.65e-005	0
bin	2.7e-005	0
bin	2.75e-005	0
bin	2.8e-005	0
bin	2.85e-005	0
bin	2.9e-005	0
bin	2.95e-005	0
bin	3e-005	0
bin	3.05e-005	0
bin	3.1e-005	0
bin	3.15e-005	0
bin	3.2e-005	0
bin	3.25e-005	0
bin	3.3e-005	0
scalar ExperimentNetwork1.bot3[1].eth[0].mac.queue queueLength:max 36
attr interpolationmode sample-hold
attr source "count(packetPushed) - count(packetPopped) - count(packetRemoved) - count(packetDropped)"
attr title "queue length, max"
scalar ExperimentNetwork1.bot3[1].eth[0].mac.queue queueLength:timeavg 15.851829355749
attr interpolationmode sample-hold
attr source "count(packetPushed) - count(packetPopped) - count(packetRemoved) - count(packetDropped)"
attr title "queue length, timeavg"
scalar ExperimentNetwork1.bot3[1].eth[0].mac.queue packetPushed:count 42
attr interpolationmode none
attr title "packet pushed, count"
scalar ExperimentNetwork1.bot3[1].eth[0].mac.queue packetPushed:sum(packetBytes) 17228
attr interpolationmode none
attr title "packet pushed, sum(packetBytes)"
scalar ExperimentNetwork1.bot3[1].eth[0].mac.queue packetDropQueueOverflow:count 0
attr interpolationmode none
attr source packetDropReasonIsQueueOverflow(packetDropped)
attr title "packet drops: queue overflow, count"
scalar ExperimentNetwork1.bot3[1].eth[0].mac.queue packetDropQueueOverflow:sum(packetBytes) 0
attr interpolationmode none
attr source packetDropReasonIsQueueOverflow(packetDropped)
attr title "packet drops: queue overflow, sum(packetBytes)"
scalar ExperimentNetwork1.bot3[1].eth[0].mac.queue packetRemoved:count 0
attr interpolationmode none
attr title "packets removed, count"
scalar ExperimentNetwork1.bot3[1].eth[0].mac.queue packetRemoved:sum(packetBytes) 0
attr interpolationmode none
attr title "packets removed, sum(packetBytes)"
scalar ExperimentNetwork1.bot3[1].eth[0].mac "simulated time" 0.000132107447
scalar ExperimentNetwork1.bot3[1].eth[0].mac full-duplex 1
scalar ExperimentNetwork1.bot3[1].eth[0].mac "frames/sec sent" 37847.979909868
scalar ExperimentNetwork1.bot3[1].eth[0].mac "frames/sec rcvd" 7569.5959819737
scalar ExperimentNetwork1.bot3[1].eth[0].mac "bits/sec sent" 19378165.713853
scalar ExperimentNetwork1.bot3[1].eth[0].mac "bits/sec rcvd" 3875633.1427705
scalar ExperimentNetwork1.bot3[1].eth[0].mac "rx channel idle (%)" 100
scalar ExperimentNetwork1.bot3[1].eth[0].mac "rx channel utilization (%)" 0
scalar ExperimentNetwork1.bot3[1].eth[0].mac txPk:count 5
attr interpolationmode none
attr source packetSentToLower
attr title "packets transmitted, count"
scalar ExperimentNetwork1.bot3[1].eth[0].mac txPk:sum(packetBytes) 320
attr interpolationmode none
attr source packetSentToLower
attr title "packets transmitted, sum(packetBytes)"
scalar ExperimentNetwork1.bot3[1].eth[0].mac packetReceivedFromUpper:count 42
attr interpolationmode none
attr source packetReceivedFromUpper
attr title "packet bytes from higher layer, count"
scalar ExperimentNetwork1.bot3[1].eth[0].mac packetReceivedFromUpper:sum(packetBytes) 17024
attr interpolationmode none
attr source packetReceivedFromUpper
attr title "packet bytes from higher layer, sum(packetBytes)"
scalar ExperimentNetwork1.bot3[1].eth[0].mac passedUpPk:count 1
attr interpolationmode none
attr source packetSentToUpper
attr title "packets passed to higher layer, count"
scalar ExperimentNetwork1.bot3[1].eth[0].mac passedUpPk:sum(packetBytes) 64
attr interpolationmode none
attr source packetSentToUpper
attr title "packets passed to higher layer, sum(packetBytes)"
scalar ExperimentNetwork1.bot3[1].eth[0].mac packetDropIncorrectlyReceived:count 0
attr interpolationmode none
attr source packetDropReasonIsIncorrectlyReceived(packetDropped)
[...]
scalar ExperimentNetwork1.coreRouter2.ipv4.arp arpResolutionCompleted:count 3
attr title "ARP completed resolutions, count"
scalar ExperimentNetwork1.coreRouter2.ipv4.arp arpResolutionInitiated:count 1
attr title "ARP initiated resolutions, count"
scalar ExperimentNetwork1.internetCloud.eth[0].mac.queue packetPopped:count 1
attr interpolationmode none
attr title "packet popped, count"
scalar ExperimentNetwork1.internetCloud.eth[0].mac.queue packetPopped:sum(packetBytes) 64
attr interpolationmode none
attr title "packet popped, sum(packetBytes)"
statistic ExperimentNetwork1.internetCloud.eth[0].mac.queue queueingTime:histogram
field count 1
field mean 0
field stddev nan
field min 0
field max 0
field sum 0
field sqrsum 0
attr interpolationmode none
attr source queueingTime(packetPopped)
attr title "queueing times, histogram"
attr unit s
bin	-inf	0
bin	-0.5	0
bin	-0.48	0
bin	-0.46	0
bin	-0.44	0
bin	-0.42	0
bin	-0.4	0
bin	-0.38	0
bin	-0.36	0
bin	-0.34	0
bin	-0.32	0
bin	-0.3	0
bin	-0.28	0
bin	-0.26	0
bin	-0.24	0
bin	-0.22	0
bin	-0.2	0
bin	-0.18	0
bin	-0.16	0
bin	-0.14	0
bin	-0.12	0
bin	-0.1	0
bin	-0.08	0
bin	-0.06	0
bin	-0.04	0
bin	-0.02	0
bin	0	1
bin	0.02	0
bin	0.04	0
bin	0.06	0
bin	0.08	0
bin	0.1	0
bin	0.12	0
bin	0.14	0
bin	0.16	0
bin	0.18	0
bin	0.2	0
bin	0.22	0
bin	0.24	0
bin	0.26	0
bin	0.28	0
bin	0.3	0
bin	0.32	0
bin	0.34	0
bin	0.36	0
bin	0.38	0
bin	0.4	0
bin	0.42	0
bin	0.44	0
bin	0.46	0
bin	0.48	0
bin	0.5	0
scalar ExperimentNetwork1.internetCloud.eth[0].mac.queue queueLength:max 1
attr interpolationmode sample-hold
attr source "count(packetPushed) - count(packetPopped) - count(packetRemoved) - count(packetDropped)"
attr title "queue length, max"
scalar ExperimentNetwork1.internetCloud.eth[0].mac.queue queueLength:timeavg 0
attr interpolationmode sample-hold
attr source "count(packetPushed) - count(packetPopped) - count(packetRemoved) - count(packetDropped)"
attr title "queue length, timeavg"
scalar ExperimentNetwork1.internetCloud.eth[0].mac.queue packetPushed:count 1
attr interpolationmode none
attr title "packet pushed, count"
scalar ExperimentNetwork1.internetCloud.eth[0].mac.queue packetPushed:sum(packetBytes) 64
attr interpolationmode none
attr title "packet pushed, sum(packetBytes)"
scalar ExperimentNetwork1.internetCloud.eth[0].mac.queue packetDropQueueOverflow:count 0
attr interpolationmode none
attr source packetDropReasonIsQueueOverflow(packetDropped)
attr title "packet drops: queue overflow, count"
scalar ExperimentNetwork1.internetCloud.eth[0].mac.queue packetDropQueueOverflow:sum(packetBytes) 0
attr interpolationmode none
attr source packetDropReasonIsQueueOverflow(packetDropped)
attr title "packet drops: queue overflow, sum(packetBytes)"
scalar ExperimentNetwork1.internetCloud.eth[0].mac.queue packetRemoved:count 0
attr interpolationmode none
attr title "packets removed, count"
scalar ExperimentNetwork1.internetCloud.eth[0].mac.queue packetRemoved:sum(packetBytes) 0
attr interpolationmode none
attr title "packets removed, sum(packetBytes)"
scalar ExperimentNetwork1.internetCloud.eth[0].mac "simulated time" 0.000132107447
scalar ExperimentNetwork1.internetCloud.eth[0].mac full-duplex 1
scalar ExperimentNetwork1.internetCloud.eth[0].mac "frames/sec sent" 7569.5959819737
scalar ExperimentNetwork1.internetCloud.eth[0].mac "frames/sec rcvd" 52987.171873816
scalar ExperimentNetwork1.internetCloud.eth[0].mac "bits/sec sent" 3875633.1427705
scalar ExperimentNetwork1.internetCloud.eth[0].mac "bits/sec rcvd" 31731746.356434
scalar ExperimentNetwork1.internetCloud.eth[0].mac "rx channel idle (%)" 100
scalar ExperimentNetwork1.internetCloud.eth[0].mac "rx channel utilization (%)" 0
scalar ExperimentNetwork1.internetCloud.eth[0].mac txPk:count 1
attr interpolationmode none
attr source packetSentToLower
attr title "packets transmitted, count"
scalar ExperimentNetwork1.internetCloud.eth[0].mac txPk:sum(packetBytes) 64
attr interpolationmode none
attr source packetSentToLower
attr title "packets transmitted, sum(packetBytes)"
scalar ExperimentNetwork1.internetCloud.eth[0].mac packetReceivedFromUpper:count 1
attr interpolationmode none
attr source packetReceivedFromUpper
attr title "packet bytes from higher layer, count"
scalar ExperimentNetwork1.internetCloud.eth[0].mac packetReceivedFromUpper:sum(packetBytes) 46
attr interpolationmode none
attr source packetReceivedFromUpper
attr title "packet bytes from higher layer, sum(packetBytes)"
scalar ExperimentNetwork1.internetCloud.eth[0].mac passedUpPk:count 7
attr interpolationmode none
attr source packetSentToUpper
attr title "packets passed to higher layer, count"
scalar ExperimentNetwork1.internetCloud.eth[0].mac passedUpPk:sum(packetBytes) 524
attr interpolationmode none
attr source packetSentToUpper
attr title "packets passed to higher layer, sum(packetBytes)"
scalar ExperimentNetwork1.internetCloud.eth[0].mac packetDropIncorrectlyReceived:count 0
attr interpolationmode none
attr source packetDropReasonIsIncorrectlyReceived(packetDropped)
attr title "packet drop: incorrectly received, count"
scalar ExperimentNetwork1.internetCloud.eth[0].mac packetDropIncorrectlyReceived:sum(packetBytes) 0
attr interpolationmode none
attr source packetDropReasonIsIncorrectlyReceived(packetDropped)
attr title "packet drop: incorrectly received, sum(packetBytes)"
scalar ExperimentNetwork1.internetCloud.eth[0].mac packetDropInterfaceDown:count 0
attr interpolationmode none
attr source packetDropReasonIsInterfaceDown(packetDropped)
attr title "packet drop: interface down, count"
scalar ExperimentNetwork1.internetCloud.eth[0].mac packetDropInterfaceDown:sum(packetBytes) 0
attr interpolationmode none
attr source packetDropReasonIsInterfaceDown(packetDropped)
attr title "packet drop: interface down, sum(packetBytes)"
scalar ExperimentNetwork1.internetCloud.eth[0].mac packetDropNotAddressedToUs:count 0
attr interpolationmode none
attr source packetDropReasonIsNotAddressedToUs(packetDropped)
attr title "packet drop: not addressed to us, count"
scalar ExperimentNetwork1.internetCloud.eth[0].mac packetDropNotAddressedToUs:sum(packetBytes) 0
attr interpolationmode none
attr source packetDropReasonIsNotAddressedToUs(packetDropped)
attr title "packet drop: not addressed to us, sum(packetBytes)"
scalar ExperimentNetwork1.internetCloud.eth[0].mac rxPausePkUnits:count 0
attr interpolationmode none
attr title "pause units received, count"
scalar ExperimentNetwork1.internetCloud.eth[0].mac rxPausePkUnits:sum 0
attr interpolationmode none
attr title "pause units received, sum"
scalar ExperimentNetwork1.internetCloud.eth[0].mac txPausePkUnits:count 0
attr interpolationmode none
attr title "pause units sent, count"
scalar ExperimentNetwork1.internetCloud.eth[0].mac txPausePkUnits:sum 0
attr interpolationmode none
attr title "pause units sent, sum"
scalar ExperimentNetwork1.internetCloud.eth[0].mac rxPkOk:count 7
attr interpolationmode none
attr source rxPkOk
attr title "packets received OK, count"
scalar ExperimentNetwork1.internetCloud.eth[0].mac rxPkOk:sum(packetBytes) 524
attr interpolationmode none
attr source rxPkOk
attr title "packets received OK, sum(packetBytes)"
scalar ExperimentNetwork1.internetCloud.eth[0].encap pauseSent:count 0
attr title "pause sent, count"
scalar ExperimentNetwork1.internetCloud.eth[0].encap pauseSent:sum 0
attr title "pause sent, sum"
scalar ExperimentNetwork1.internetCloud.eth[0].encap decapPk:count 7
attr interpolationmode none
attr source decapPk
attr title "packets decapsulated, count"
scalar ExperimentNetwork1.internetCloud.eth[0].encap decapPk:sum(packetBytes) 398
attr interpolationmode none
attr source decapPk
attr title "packets decapsulated, sum(packetBytes)"
scalar ExperimentNetwork1.internetCloud.eth[0].encap encapPk:count 1
attr interpolationmode none
attr source encapPk
attr title "packets encapsulated, count"
scalar ExperimentNetwork1.internetCloud.eth[0].encap encapPk:sum(packetBytes) 28
attr interpolationmode none
attr source encapPk
attr title "packets encapsulated, sum(packetBytes)"
scalar ExperimentNetwork1.internetCloud.eth[1].mac.queue packetPopped:count 1
attr interpolationmode none
attr title "packet popped, count"
scalar ExperimentNetwork1.internetCloud.eth[1].mac.queue packetPopped:sum(packetBytes) 64
attr interpolationmode none
attr title "packet popped, sum(packetBytes)"
statistic ExperimentNetwork1.internetCloud.eth[1].mac.queue queueingTime:histogram
field count 1
field mean 0
field stddev nan
field min 0
field max 0
field sum 0
field sqrsum 0
attr interpolationmode none
attr source queueingTime(packetPopped)
attr title "queueing times, histogram"
attr unit s
bin	-inf	0
bin	-0.5	0
bin	-0.48	0
bin	-0.46	0
bin	-0.44	0
bin	-0.42	0
bin	-0.4	0
bin	-0.38	0
bin	-0.36	0
bin	-0.34	0
bin	-0.32	0
bin	-0.3	0
bin	-0.28	0
bin	-0.26	0
bin	-0.24	0
bin	-0.22	0
bin	-0.2	0
bin	-0.18	0
bin	-0.16	0
bin	-0.14	0
bin	-0.12	0
bin	-0.1	0
bin	-0.08	0
bin	-0.06	0
bin	-0.04	0
bin	-0.02	0
bin	0	1
bin	0.02	0
bin	0.04	0
bin	0.06	0
bin	0.08	0
bin	0.1	0
bin	0.12	0
bin	0.14	0
bin	0.16	0
bin	0.18	0
bin	0.2	0
bin	0.22	0
bin	0.24	0
bin	0.26	0
bin	0.28	0
bin	0.3	0
bin	0.32	0
bin	0.34	0
bin	0.36	0
bin	0.38	0
bin	0.4	0
bin	0.42	0
bin	0.44	0
bin	0.46	0
bin	0.48	0
bin	0.5	0
scalar ExperimentNetwork1.internetCloud.eth[1].mac.queue queueLength:max 1
attr interpolationmode sample-hold
attr source "count(packetPushed) - count(packetPopped) - count(packetRemoved) - count(packetDropped)"
attr title "queue length, max"
scalar ExperimentNetwork1.internetCloud.eth[1].mac.queue queueLength:timeavg 0
attr interpolationmode sample-hold
attr source "count(packetPushed) - count(packetPopped) - count(packetRemoved) - count(packetDropped)"
attr title "queue length, timeavg"
scalar ExperimentNetwork1.internetCloud.eth[1].mac.queue packetPushed:count 1
attr interpolationmode none
attr title "packet pushed, count"
scalar ExperimentNetwork1.internetCloud.eth[1].mac.queue packetPushed:sum(packetBytes) 64
attr interpolationmode none
attr title "packet pushed, sum(packetBytes)"
scalar ExperimentNetwork1.internetCloud.eth[1].mac.queue packetDropQueueOverflow:count 0
attr interpolationmode none
attr source packetDropReasonIsQueueOverflow(packetDropped)
attr title "packet drops: queue overflow, count"
scalar ExperimentNetwork1.internetCloud.eth[1].mac.queue packetDropQueueOverflow:sum(packetBytes) 0
attr interpolationmode none
attr source packetDropReasonIsQueueOverflow(packetDropped)
attr title "packet drops: queue overflow, sum(packetBytes)"
scalar ExperimentNetwork1.internetCloud.eth[1].mac.queue packetRemoved:count 0
attr interpolationmode none
attr title "packets removed, count"
scalar ExperimentNetwork1.internetCloud.eth[1].mac.queue packetRemoved:sum(packetBytes) 0
attr interpolationmode none
attr title "packets removed, sum(packetBytes)"
scalar ExperimentNetwork1.internetCloud.eth[1].mac "simulated time" 0.000132107447
scalar ExperimentNetwork1.internetCloud.eth[1].mac full-duplex 1
scalar ExperimentNetwork1.internetCloud.eth[1].mac "frames/sec sent" 7569.5959819737
scalar ExperimentNetwork1.internetCloud.eth[1].mac "frames/sec rcvd" 30278.383927895
scalar ExperimentNetwork1.internetCloud.eth[1].mac "bits/sec sent" 3875633.1427705
scalar ExperimentNetwork1.internetCloud.eth[1].mac "bits/sec rcvd" 20104846.928122
scalar ExperimentNetwork1.internetCloud.eth[1].mac "rx channel idle (%)" 100
scalar ExperimentNetwork1.internetCloud.eth[1].mac "rx channel utilization (%)" 0
scalar ExperimentNetwork1.internetCloud.eth[1].mac txPk:count 1
attr interpolationmode none
attr source packetSentToLower
attr title "packets transmitted, count"
scalar ExperimentNetwork1.internetCloud.eth[1].mac txPk:sum(packetBytes) 64
attr interpolationmode none
attr source packetSentToLower
attr title "packets transmitted, sum(packetBytes)"
scalar ExperimentNetwork1.internetCloud.eth[1].mac packetReceivedFromUpper:count 1
attr interpolationmode none
attr source packetReceivedFromUpper
attr title "packet bytes from higher layer, count"
scalar ExperimentNetwork1.internetCloud.eth[1].mac packetReceivedFromUpper:sum(packetBytes) 46
attr interpolationmode none
attr source packetReceivedFromUpper
attr title "packet bytes from higher layer, sum(packetBytes)"
scalar ExperimentNetwork1.internetCloud.eth[1].mac passedUpPk:count 4
attr interpolationmode none
attr source packetSentToUpper
attr title "packets passed to higher layer, count"
scalar ExperimentNetwork1.internetCloud.eth[1].mac passedUpPk:sum(packetBytes) 332
attr interpolationmode none
attr source packetSentToUpper
attr title "packets passed to higher layer, sum(packetBytes)"
scalar ExperimentNetwork1.internetCloud.eth[1].mac packetDropIncorrectlyReceived:count 0
attr interpolationmode none
attr source packetDropReasonIsIncorrectlyReceived(packetDropped)
attr title "packet drop: incorrectly received, count"
scalar ExperimentNetwork1.internetCloud.eth[1].mac packetDropIncorrectlyReceived:sum(packetBytes) 0
attr interpolationmode none
attr source packetDropReasonIsIncorrectlyReceived(packetDropped)
attr title "packet drop: incorrectly received, sum(packetBytes)"
scalar ExperimentNetwork1.internetCloud.eth[1].mac packetDropInterfaceDown:count 0
attr interpolationmode none
attr source packetDropReasonIsInterfaceDown(packetDropped)
attr title "packet drop: interface down, count"
scalar ExperimentNetwork1.internetCloud.eth[1].mac packetDropInterfaceDown:sum(packetBytes) 0
attr interpolationmode none
attr source packetDropReasonIsInterfaceDown(packetDropped)
attr title "packet drop: interface down, sum(packetBytes)"
scalar ExperimentNetwork1.internetCloud.eth[1].mac packetDropNotAddressedToUs:count 0
attr interpolationmode none
attr source packetDropReasonIsNotAddressedToUs(packetDropped)
attr title "packet drop: not addressed to us, count"
scalar ExperimentNetwork1.internetCloud.eth[1].mac packetDropNotAddressedToUs:sum(packetBytes) 0
attr interpolationmode none
attr source packetDropReasonIsNotAddressedToUs(packetDropped)
attr title "packet drop: not addressed to us, sum(packetBytes)"
scalar ExperimentNetwork1.internetCloud.eth[1].mac rxPausePkUnits:count 0
attr interpolationmode none
attr title "pause units received, count"
scalar ExperimentNetwork1.internetCloud.eth[1].mac rxPausePkUnits:sum 0
attr interpolationmode none
attr title "pause units received, sum"
scalar ExperimentNetwork1.internetCloud.eth[1].mac txPausePkUnits:count 0
attr interpolationmode none
attr title "pause units sent, count"
scalar ExperimentNetwork1.internetCloud.eth[1].mac txPausePkUnits:sum 0
attr interpolationmode none
attr title "pause units sent, sum"
scalar ExperimentNetwork1.internetCloud.eth[1].mac rxPkOk:count 4
attr interpolationmode none
attr source rxPkOk
attr title "packets received OK, count"
scalar ExperimentNetwork1.internetCloud.eth[1].mac rxPkOk:sum(packetBytes) 332
attr interpolationmode none
attr source rxPkOk
attr title "packets received OK, sum(packetBytes)"
scalar ExperimentNetwork1.internetCloud.eth[1].encap pauseSent:count 0
attr title "pause sent, count"
scalar ExperimentNetwork1.internetCloud.eth[1].encap pauseSent:sum 0
attr title "pause sent, sum"
scalar ExperimentNetwork1.internetCloud.eth[1].encap decapPk:count 4
attr interpolationmode none
attr source decapPk
attr title "packets decapsulated, count"
scalar ExperimentNetwork1.internetCloud.eth[1].encap decapPk:sum(packetBytes) 260
attr interpolationmode none
attr source decapPk
attr title "packets decapsulated, sum(packetBytes)"
scalar ExperimentNetwork1.internetCloud.eth[1].encap encapPk:count 1
attr interpolationmode none
attr source encapPk
attr title "packets encapsulated, count"
scalar ExperimentNetwork1.internetCloud.eth[1].encap encapPk:sum(packetBytes) 28
attr interpolationmode none
attr source encapPk
attr title "packets encapsulated, sum(packetBytes)"
scalar ExperimentNetwork1.internetCloud.ipv4.ip packetDropAddressResolutionFailed:count 0
attr interpolationmode none
attr source packetDropReasonIsAddressResolutionFailed(packetDropped)
attr title "packet drop: address resolution failed, count"
scalar ExperimentNetwork1.internetCloud.ipv4.ip packetDropAddressResolutionFailed:sum(packetBytes) 0
attr interpolationmode none
attr source packetDropReasonIsAddressResolutionFailed(packetDropped)
attr title "packet drop: address resolution failed, sum(packetBytes)"
scalar ExperimentNetwork1.internetCloud.ipv4.ip packetDropHopLimitReached:count 0
attr interpolationmode none
attr source packetDropReasonIsHopLimitReached(packetDropped)
attr title "packet drop: hop limit reached, count"
scalar ExperimentNetwork1.internetCloud.ipv4.ip packetDropHopLimitReached:sum(packetBytes) 0
attr interpolationmode none
attr source packetDropReasonIsHopLimitReached(packetDropped)
attr title "packet drop: hop limit reached, sum(packetBytes)"
scalar ExperimentNetwork1.internetCloud.ipv4.ip packetDropForwardingDisabled:count 0
attr interpolationmode none
attr source packetDropReasonIsForwardingDisabled(packetDropped)
attr title "packet drop: forwarding disabled, count"
scalar ExperimentNetwork1.internetCloud.ipv4.ip packetDropForwardingDisabled:sum(packetBytes) 0
attr interpolationmode none
attr source packetDropReasonIsForwardingDisabled(packetDropped)
attr title "packet drop: forwarding disabled, sum(packetBytes)"
scalar ExperimentNetwork1.internetCloud.ipv4.ip packetDropNoInterfaceFound:count 0
attr interpolationmode none
attr source packetDropReasonIsNoInterfaceFound(packetDropped)
attr title "packet drop: no interface found, count"
scalar ExperimentNetwork1.internetCloud.ipv4.ip packetDropNoInterfaceFound:sum(packetBytes) 0
attr interpolationmode none
attr source packetDropReasonIsNoInterfaceFound(packetDropped)
attr title "packet drop: no interface found, sum(packetBytes)"
scalar ExperimentNetwork1.internetCloud.ipv4.ip packetDropNoRouteFound:count 0
attr interpolationmode none
attr source packetDropReasonIsNoRouteFound(packetDropped)
attr title "packet drop: no route found, count"
scalar ExperimentNetwork1.internetCloud.ipv4.ip packetDropNoRouteFound:sum(packetBytes) 0
attr interpolationmode none
attr source packetDropReasonIsNoRouteFound(packetDropped)
attr title "packet drop: no route found, sum(packetBytes)"
scalar ExperimentNetwork1.internetCloud.ipv4.ip packetDropUndefined:count 0
attr interpolationmode none
attr source packetDropReasonIsUndefined(packetDropped)
attr title "packet drop: undefined, count"
scalar ExperimentNetwork1.internetCloud.ipv4.ip packetDropUndefined:sum(packetBytes) 0
attr interpolationmode none
attr source packetDropReasonIsUndefined(packetDropped)
attr title "packet drop: undefined, sum(packetBytes)"
scalar ExperimentNetwork1.internetCloud.ipv4.arp arpReplySent:count 2
attr source arpReplySent
attr title "ARP replies sent, count"
scalar ExperimentNetwork1.internetCloud.ipv4.arp arpReplySent:sum(packetBytes) 56
attr source arpReplySent
attr title "ARP replies sent, sum(packetBytes)"
scalar ExperimentNetwork1.internetCloud.ipv4.arp arpRequestSent:count 0
attr source arpRequestSent
attr title "ARP request sent, count"
scalar ExperimentNetwork1.internetCloud.ipv4.arp arpRequestSent:sum(packetBytes) 0
attr source arpRequestSent
attr title "ARP request sent, sum(packetBytes)"
scalar ExperimentNetwork1.internetCloud.ipv4.arp arpResolutionFailed:count 0
attr title "ARP failed resolutions, count"
scalar ExperimentNetwork1.internetCloud.ipv4.arp arpResolutionCompleted:count 2
attr title "ARP completed resolutions, count"
scalar ExperimentNetwork1.internetCloud.ipv4.arp arpResolutionInitiated:count 0
attr title "ARP initiated resolutions, count"

