version 2
run ExperimentNetwork2-0-20200911-10:58:47-3596
attr configname ExperimentNetwork2
attr datetime 20200911-10:58:47
attr experiment ExperimentNetwork2
attr inifile experiment.ini
attr iterationvars ""
attr iterationvarsf ""
attr measurement ""
attr network ExperimentNetwork2
attr processid 3596
attr repetition 0
attr replication #0
attr resultdir results
attr runnumber 0
attr seedset 0
param *.visualizer.*.interfaceTableVisualizer.nodeFilter "\"not (*Switch* accessPoint*)\""
param *.visualizer.*.mobilityVisualizer.displayMobility true
param *.visualizer.*.mobilityVisualizer.displayPositions true
param *.visualizer.*.mobilityVisualizer.displayOrientations true
param *.visualizer.*.mobilityVisualizer.displayVelocities true
param *.visualizer.*.mobilityVisualizer.displayMovementTrails true
param *.DDoS*.numPktGen 4
param *.DDoS*.pg[*].localPort 1234
param *.DDoS*.pg[*].destPort 1234
param *.DDoS*.pg[*].startTime "2s+uniform(0.01ms, 0.05ms)"
param *.DDoS*.pg[*].sendInterval 0.01ms
param *.DDoS*.pg[0].packetType "\"UDP\""
param *.DDoS*.pg[0].packetName "\"UDPFlood\""
param *.DDoS*.pg[1].packetType "\"TCP_SYN\""
param *.DDoS*.pg[1].packetName "\"SYNFlood\""
param *.DDoS*.pg[2].packetType "\"TCP_SYNACK\""
param *.DDoS*.pg[2].packetName "\"SYNACKFlood\""
param *.DDoS*.pg[3].packetType "\"TCP_ACK\""
param *.DDoS*.pg[3].packetName "\"ACKFlood\""
param *.*Bot.pg[0].destAddr "\"standardHost2\""
param *.*Bot.pg[1].destAddr "\"standardHost9\""
param *.*Bot.pg[2].destAddr "\"standardHost7\""
param *.*Bot.pg[3].destAddr "\"standardHost4\""
param *.*Bot1.pg[0].destAddr "\"standardHost5\""
param *.*Bot1.pg[1].destAddr "\"standardHost10\""
param *.*Bot1.pg[2].destAddr "\"wirelessHost\""
param *.*Bot1.pg[3].destAddr "\"adhocHost\""
param *.*Bot2.pg[0].destAddr "\"standardHost1\""
param *.*Bot2.pg[1].destAddr "\"standardHost6\""
param *.*Bot2.pg[2].destAddr "\"adhocHost2\""
param *.*Bot2.pg[3].destAddr "\"wirelessHost3\""
param *.*Bot3.pg[0].destAddr "\"standardHost4\""
param *.*Bot3.pg[1].destAddr "\"standardHost9\""
param *.*Bot3.pg[2].destAddr "\"adhocHost\""
param *.*Bot3.pg[3].destAddr "\"wirelessHost\""
param *.*Bot4.pg[*].destAddr "\"standardHost1\""
param *.*Bot5.pg[*].destAddr "\"wirelessHost2\""
param *.*Host*.numApps 1
param *.*Host*.app[*].typename "\"PingApp\""
param *.*Host*.app[*].sendInterval 0.02ms
param *.*Host*.app[*].startTime "2s+uniform(0.01ms, 0.05ms)"
param *.standardHost.app[*].destAddr "\"standardHost1\""
param *.standardHost1.app[*].destAddr "\"standardHost7\""
param *.standardHost2.app[*].destAddr "\"standardHost8\""
param *.standardHost3.app[*].destAddr "\"standardHost10\""
param *.standardHost4.app[*].destAddr "\"adhocHost1\""
param *.standardHost5.app[*].destAddr "\"wirelessHost\""
param *.standardHost6.app[*].destAddr "\"wirelessHost2\""
param *.standardHost7.app[*].destAddr "\"standardHost9\""
param *.standardHost8.app[*].destAddr "\"standardHost1\""
param *.standardHost9.app[*].destAddr "\"standardHost\""
param *.adhocHost.app[*].destAddr "\"standardHost1\""
param *.adhocHost1.app[*].destAddr "\"wirelessHost\""
param *.adhocHost2.app[*].destAddr "\"adhocHost\""
param *.wirelessHost.app[*].destAddr "\"standardHost\""
param *.wirelessHost1.app[*].destAddr "\"standardHost5\""
param *.wirelessHost2.app[*].destAddr "\"adhocHost\""
param *.wirelessHost3.app[*].destAddr "\"standardHost9\""
param *.wireless*.mobility.typename "\"MassMobility\""
param *.wireless*.mobility.initFromDisplayString false
param *.wireless*.mobility.changeInterval "truncnormal(0.02ms, 0.05ms)"
param *.wireless*.mobility.angleDelta "normal(0deg, 30deg)"
param *.wireless*.mobility.speed "truncnormal(20mps, 8mps)"
param *.wirelessHost.mobility.initialX 998m
param *.wirelessHost.mobility.initialY 914m
param *.wirelessHost.mobility.initialZ 0m
param *.wirelessHost1.mobility.initialX 1066m
param *.wirelessHost1.mobility.initialY 858m
param *.wirelessHost1.mobility.initialZ 0m
param *.wirelessHost2.mobility.initialX 1206m
param *.wirelessHost2.mobility.initialY 731m
param *.wirelessHost2.mobility.initialZ 0m
param *.wirelessHost3.mobility.initialX 1249m
param *.wirelessHost3.mobility.initialY 655m
param *.wirelessHost3.mobility.initialZ 0m
param **.visualizer.*.interfaceTableVisualizer.displayInterfaceTables true

scalar ExperimentNetwork2.radioMedium.propagation "Arrival computation count" 9
scalar ExperimentNetwork2.radioMedium "transmission count" 1
scalar ExperimentNetwork2.radioMedium "signal send count" 9
scalar ExperimentNetwork2.radioMedium "reception computation count" 9
scalar ExperimentNetwork2.radioMedium "interference computation count" 38
scalar ExperimentNetwork2.radioMedium "reception decision computation count" 8
scalar ExperimentNetwork2.radioMedium "listening decision computation count" 21
scalar ExperimentNetwork2.radioMedium "reception cache hit" 85
attr unit %
scalar ExperimentNetwork2.radioMedium "interference cache hit" 66.666666666667
attr unit %
scalar ExperimentNetwork2.radioMedium "noise cache hit" 0
attr unit %
scalar ExperimentNetwork2.radioMedium "snir cache hit" 50
attr unit %
scalar ExperimentNetwork2.radioMedium "reception decision cache hit" 50
attr unit %
scalar ExperimentNetwork2.radioMedium "reception result cache hit" 0
attr unit %
scalar ExperimentNetwork2.router.lo[0].lo rcvdPkFromHl:count 0
attr interpolationmode none
attr source packetReceivedFromUpper
attr title "packets received from higher layer, count"
scalar ExperimentNetwork2.router.lo[0].lo rcvdPkFromHl:sum(packetBytes) 0
attr interpolationmode none
attr source packetReceivedFromUpper
attr title "packets received from higher layer, sum(packetBytes)"
scalar ExperimentNetwork2.router.lo[0].lo passedUpPk:count 0
attr interpolationmode none
attr source packetSentToUpper
attr title "packets passed to higher layer, count"
scalar ExperimentNetwork2.router.lo[0].lo passedUpPk:sum(packetBytes) 0
attr interpolationmode none
attr source packetSentToUpper
attr title "packets passed to higher layer, sum(packetBytes)"
scalar ExperimentNetwork2.router.eth[0].mac.queue packetPopped:count 0
attr interpolationmode none
attr title "packet popped, count"
scalar ExperimentNetwork2.router.eth[0].mac.queue packetPopped:sum(packetBytes) 0
attr interpolationmode none
attr title "packet popped, sum(packetBytes)"
statistic ExperimentNetwork2.router.eth[0].mac.queue queueingTime:histogram
field count 0
field mean nan
field stddev nan
field min nan
field max nan
field sum 0
field sqrsum 0
attr interpolationmode none
attr source queueingTime(packetPopped)
attr title "queueing times, histogram"
attr unit s
bin	-inf	0
bin	0	0
bin	1	0
scalar ExperimentNetwork2.router.eth[0].mac.queue queueLength:max nan
attr interpolationmode sample-hold
attr source "count(packetPushed) - count(packetPopped) - count(packetRemoved) - count(packetDropped)"
attr title "queue length, max"
scalar ExperimentNetwork2.router.eth[0].mac.queue queueLength:timeavg nan
attr interpolationmode sample-hold
attr source "count(packetPushed) - count(packetPopped) - count(packetRemoved) - count(packetDropped)"
attr title "queue length, timeavg"
scalar ExperimentNetwork2.router.eth[0].mac.queue packetPushed:count 0
attr interpolationmode none
attr title "packet pushed, count"
scalar ExperimentNetwork2.router.eth[0].mac.queue packetPushed:sum(packetBytes) 0
attr interpolationmode none
attr title "packet pushed, sum(packetBytes)"
scalar ExperimentNetwork2.router.eth[0].mac.queue packetDropQueueOverflow:count 0
attr interpolationmode none
attr source packetDropReasonIsQueueOverflow(packetDropped)
attr title "packet drops: queue overflow, count"
scalar ExperimentNetwork2.router.eth[0].mac.queue packetDropQueueOverflow:sum(packetBytes) 0
attr interpolationmode none
attr source packetDropReasonIsQueueOverflow(packetDropped)
attr title "packet drops: queue overflow, sum(packetBytes)"
scalar ExperimentNetwork2.router.eth[0].mac.queue packetRemoved:count 0
attr interpolationmode none
attr title "packets removed, count"
scalar ExperimentNetwork2.router.eth[0].mac.queue packetRemoved:sum(packetBytes) 0
attr interpolationmode none
attr title "packets removed, sum(packetBytes)"
scalar ExperimentNetwork2.router.eth[0].mac "simulated time" 0.002111893041
scalar ExperimentNetwork2.router.eth[0].mac full-duplex 1
scalar ExperimentNetwork2.router.eth[0].mac "frames/sec sent" 0
scalar ExperimentNetwork2.router.eth[0].mac "frames/sec rcvd" 0
scalar ExperimentNetwork2.router.eth[0].mac "bits/sec sent" 0
scalar ExperimentNetwork2.router.eth[0].mac "bits/sec rcvd" 0
scalar ExperimentNetwork2.router.eth[0].mac "rx channel idle (%)" 100
scalar ExperimentNetwork2.router.eth[0].mac "rx channel utilization (%)" 0
scalar ExperimentNetwork2.router.eth[0].mac txPk:count 0
attr interpolationmode none
attr source packetSentToLower
attr title "packets transmitted, count"
scalar ExperimentNetwork2.router.eth[0].mac txPk:sum(packetBytes) 0
attr interpolationmode none
attr source packetSentToLower
attr title "packets transmitted, sum(packetBytes)"
scalar ExperimentNetwork2.router.eth[0].mac packetReceivedFromUpper:count 0
attr interpolationmode none
attr source packetReceivedFromUpper
attr title "packet bytes from higher layer, count"
scalar ExperimentNetwork2.router.eth[0].mac packetReceivedFromUpper:sum(packetBytes) 0
attr interpolationmode none
attr source packetReceivedFromUpper
attr title "packet bytes from higher layer, sum(packetBytes)"
scalar ExperimentNetwork2.router.eth[0].mac passedUpPk:count 0
attr interpolationmode none
attr source packetSentToUpper
attr title "packets passed to higher layer, count"
scalar ExperimentNetwork2.router.eth[0].mac passedUpPk:sum(packetBytes) 0
attr interpolationmode none
attr source packetSentToUpper
attr title "packets passed to higher layer, sum(packetBytes)"
scalar ExperimentNetwork2.router.eth[0].mac packetDropIncorrectlyReceived:count 0
attr interpolationmode none
attr source packetDropReasonIsIncorrectlyReceived(packetDropped)
attr title "packet drop: incorrectly received, count"
scalar ExperimentNetwork2.router.eth[0].mac packetDropIncorrectlyReceived:sum(packetBytes) 0
attr interpolationmode none
attr source packetDropReasonIsIncorrectlyReceived(packetDropped)
attr title "packet drop: incorrectly received, sum(packetBytes)"
scalar ExperimentNetwork2.router.eth[0].mac packetDropInterfaceDown:count 0
attr interpolationmode none
attr source packetDropReasonIsInterfaceDown(packetDropped)
attr title "packet drop: interface down, count"
scalar ExperimentNetwork2.router.eth[0].mac packetDropInterfaceDown:sum(packetBytes) 0
attr interpolationmode none
attr source packetDropReasonIsInterfaceDown(packetDropped)
attr title "packet drop: interface down, sum(packetBytes)"
scalar ExperimentNetwork2.router.eth[0].mac packetDropNotAddressedToUs:count 0
attr interpolationmode none
attr source packetDropReasonIsNotAddressedToUs(packetDropped)
attr title "packet drop: not addressed to us, count"
scalar ExperimentNetwork2.router.eth[0].mac packetDropNotAddressedToUs:sum(packetBytes) 0
attr interpolationmode none
attr source packetDropReasonIsNotAddressedToUs(packetDropped)
attr title "packet drop: not addressed to us, sum(packetBytes)"
scalar ExperimentNetwork2.router.eth[0].mac rxPausePkUnits:count 0
attr interpolationmode none
attr title "pause units received, count"
scalar ExperimentNetwork2.router.eth[0].mac rxPausePkUnits:sum 0
attr interpolationmode none
attr title "pause units received, sum"
scalar ExperimentNetwork2.router.eth[0].mac txPausePkUnits:count 0
attr interpolationmode none
attr title "pause units sent, count"
scalar ExperimentNetwork2.router.eth[0].mac txPausePkUnits:sum 0
attr interpolationmode none
attr title "pause units sent, sum"
scalar ExperimentNetwork2.router.eth[0].mac rxPkOk:count 0
attr interpolationmode none
attr source rxPkOk
attr title "packets received OK, count"
scalar ExperimentNetwork2.router.eth[0].mac rxPkOk:sum(packetBytes) 0
attr interpolationmode none
attr source rxPkOk
attr title "packets received OK, sum(packetBytes)"
scalar ExperimentNetwork2.router.eth[0].encap pauseSent:count 0
attr title "pause sent, count"
scalar ExperimentNetwork2.router.eth[0].encap pauseSent:sum 0
attr title "pause sent, sum"
scalar ExperimentNetwork2.router.eth[0].encap decapPk:count 0
attr interpolationmode none
attr source decapPk
attr title "packets decapsulated, count"
scalar ExperimentNetwork2.router.eth[0].encap decapPk:sum(packetBytes) 0
attr interpolationmode none
attr source decapPk
attr title "packets decapsulated, sum(packetBytes)"
scalar ExperimentNetwork2.router.eth[0].encap encapPk:count 0
attr interpolationmode none
attr source encapPk
attr title "packets encapsulated, count"
scalar ExperimentNetwork2.router.eth[0].encap encapPk:sum(packetBytes) 0
attr interpolationmode none
attr source encapPk
attr title "packets encapsulated, sum(packetBytes)"
scalar ExperimentNetwork2.router.eth[1].mac.queue packetPopped:count 0
attr interpolationmode none
attr title "packet popped, count"
scalar ExperimentNetwork2.router.eth[1].mac.queue packetPopped:sum(packetBytes) 0
attr interpolationmode none
attr title "packet popped, sum(packetBytes)"
statistic ExperimentNetwork2.router.eth[1].mac.queue queueingTime:histogram
field count 0
field mean nan
field stddev nan
field min nan
field max nan
field sum 0
field sqrsum 0
attr interpolationmode none
attr source queueingTime(packetPopped)
attr title "queueing times, histogram"
attr unit s
bin	-inf	0
bin	0	0
bin	1	0
scalar ExperimentNetwork2.router.eth[1].mac.queue queueLength:max nan
attr interpolationmode sample-hold
attr source "count(packetPushed) - count(packetPopped) - count(packetRemoved) - count(packetDropped)"
attr title "queue length, max"
scalar ExperimentNetwork2.router.eth[1].mac.queue queueLength:timeavg nan
attr interpolationmode sample-hold
attr source "count(packetPushed) - count(packetPopped) - count(packetRemoved) - count(packetDropped)"
attr title "queue length, timeavg"
scalar ExperimentNetwork2.router.eth[1].mac.queue packetPushed:count 0
attr interpolationmode none
attr title "packet pushed, count"
scalar ExperimentNetwork2.router.eth[1].mac.queue packetPushed:sum(packetBytes) 0
attr interpolationmode none
attr title "packet pushed, sum(packetBytes)"
scalar ExperimentNetwork2.router.eth[1].mac.queue packetDropQueueOverflow:count 0
attr interpolationmode none
attr source packetDropReasonIsQueueOverflow(packetDropped)
attr title "packet drops: queue overflow, count"
scalar ExperimentNetwork2.router.eth[1].mac.queue packetDropQueueOverflow:sum(packetBytes) 0
attr interpolationmode none
attr source packetDropReasonIsQueueOverflow(packetDropped)
attr title "packet drops: queue overflow, sum(packetBytes)"
scalar ExperimentNetwork2.router.eth[1].mac.queue packetRemoved:count 0
attr interpolationmode none
attr title "packets removed, count"
scalar ExperimentNetwork2.router.eth[1].mac.queue packetRemoved:sum(packetBytes) 0
attr interpolationmode none
attr title "packets removed, sum(packetBytes)"
scalar ExperimentNetwork2.router.eth[1].mac "simulated time" 0.002111893041
scalar ExperimentNetwork2.router.eth[1].mac full-duplex 1
scalar ExperimentNetwork2.router.eth[1].mac "frames/sec sent" 0
scalar ExperimentNetwork2.router.eth[1].mac "frames/sec rcvd" 0
scalar ExperimentNetwork2.router.eth[1].mac "bits/sec sent" 0
scalar ExperimentNetwork2.router.eth[1].mac "bits/sec rcvd" 0
scalar ExperimentNetwork2.router.eth[1].mac "rx channel idle (%)" 100
scalar ExperimentNetwork2.router.eth[1].mac "rx channel utilization (%)" 0
scalar ExperimentNetwork2.router.eth[1].mac txPk:count 0
attr interpolationmode none
attr source packetSentToLower
attr title "packets transmitted, count"
scalar ExperimentNetwork2.router.eth[1].mac txPk:sum(packetBytes) 0
attr interpolationmode none
attr source packetSentToLower
attr title "packets transmitted, sum(packetBytes)"
scalar ExperimentNetwork2.router.eth[1].mac packetReceivedFromUpper:count 0
attr interpolationmode none
attr source packetReceivedFromUpper
attr title "packet bytes from higher layer, count"
scalar ExperimentNetwork2.router.eth[1].mac packetReceivedFromUpper:sum(packetBytes) 0
attr interpolationmode none
attr source packetReceivedFromUpper
attr title "packet bytes from higher layer, sum(packetBytes)"
scalar ExperimentNetwork2.router.eth[1].mac passedUpPk:count 0
attr interpolationmode none
attr source packetSentToUpper
attr title "packets passed to higher layer, count"
scalar ExperimentNetwork2.router.eth[1].mac passedUpPk:sum(packetBytes) 0
attr interpolationmode none
attr source packetSentToUpper
attr title "packets passed to higher layer, sum(packetBytes)"
scalar ExperimentNetwork2.router.eth[1].mac packetDropIncorrectlyReceived:count 0
attr interpolationmode none
attr source packetDropReasonIsIncorrectlyReceived(packetDropped)
attr title "packet drop: incorrectly received, count"
scalar ExperimentNetwork2.router.eth[1].mac packetDropIncorrectlyReceived:sum(packetBytes) 0
attr interpolationmode none
attr source packetDropReasonIsIncorrectlyReceived(packetDropped)
attr title "packet drop: incorrectly received, sum(packetBytes)"
scalar ExperimentNetwork2.router.eth[1].mac packetDropInterfaceDown:count 0
attr interpolationmode none
attr source packetDropReasonIsInterfaceDown(packetDropped)
attr title "packet drop: interface down, count"
scalar ExperimentNetwork2.router.eth[1].mac packetDropInterfaceDown:sum(packetBytes) 0
attr interpolationmode none
attr source packetDropReasonIsInterfaceDown(packetDropped)
attr title "packet drop: interface down, sum(packetBytes)"
scalar ExperimentNetwork2.router.eth[1].mac packetDropNotAddressedToUs:count 0
attr interpolationmode none
attr source packetDropReasonIsNotAddressedToUs(packetDropped)
attr title "packet drop: not addressed to us, count"
scalar ExperimentNetwork2.router.eth[1].mac packetDropNotAddressedToUs:sum(packetBytes) 0
attr interpolationmode none
attr source packetDropReasonIsNotAddressedToUs(packetDropped)
attr title "packet drop: not addressed to us, sum(packetBytes)"
scalar ExperimentNetwork2.router.eth[1].mac rxPausePkUnits:count 0
attr interpolationmode none
attr title "pause units received, count"
scalar ExperimentNetwork2.router.eth[1].mac rxPausePkUnits:sum 0
attr interpolationmode none
attr title "pause units received, sum"
scalar ExperimentNetwork2.router.eth[1].mac txPausePkUnits:count 0
attr interpolationmode none
attr title "pause units sent, count"
scalar ExperimentNetwork2.router.eth[1].mac txPausePkUnits:sum 0
attr interpolationmode none
attr title "pause units sent, sum"
scalar ExperimentNetwork2.router.eth[1].mac rxPkOk:count 0
attr interpolationmode none
attr source rxPkOk
attr title "packets received OK, count"
scalar ExperimentNetwork2.router.eth[1].mac rxPkOk:sum(packetBytes) 0
attr interpolationmode none
attr source rxPkOk
attr title "packets received OK, sum(packetBytes)"
scalar ExperimentNetwork2.router.eth[1].encap pauseSent:count 0
attr title "pause sent, count"
scalar ExperimentNetwork2.router.eth[1].encap pauseSent:sum 0
attr title "pause sent, sum"
scalar ExperimentNetwork2.router.eth[1].encap decapPk:count 0
attr interpolationmode none
attr source decapPk
attr title "packets decapsulated, count"
scalar ExperimentNetwork2.router.eth[1].encap decapPk:sum(packetBytes) 0
attr interpolationmode none
attr source decapPk
attr title "packets decapsulated, sum(packetBytes)"
scalar ExperimentNetwork2.router.eth[1].encap encapPk:count 0
attr interpolationmode none
attr source encapPk
attr title "packets encapsulated, count"
scalar ExperimentNetwork2.router.eth[1].encap encapPk:sum(packetBytes) 0
attr interpolationmode none
attr source encapPk
attr title "packets encapsulated, sum(packetBytes)"
scalar ExperimentNetwork2.router.ipv4.ip packetDropAddressResolutionFailed:count 0
attr interpolationmode none
attr source packetDropReasonIsAddressResolutionFailed(packetDropped)
attr title "packet drop: address resolution failed, count"
scalar ExperimentNetwork2.router.ipv4.ip packetDropAddressResolutionFailed:sum(packetBytes) 0
attr interpolationmode none
attr source packetDropReasonIsAddressResolutionFailed(packetDropped)
attr title "packet drop: address resolution failed, sum(packetBytes)"
scalar ExperimentNetwork2.router.ipv4.ip packetDropHopLimitReached:count 0
attr interpolationmode none
attr source packetDropReasonIsHopLimitReached(packetDropped)
attr title "packet drop: hop limit reached, count"
scalar ExperimentNetwork2.router.ipv4.ip packetDropHopLimitReached:sum(packetBytes) 0
attr interpolationmode none
attr source packetDropReasonIsHopLimitReached(packetDropped)
attr title "packet drop: hop limit reached, sum(packetBytes)"
scalar ExperimentNetwork2.router.ipv4.ip packetDropForwardingDisabled:count 0
attr interpolationmode none
attr source packetDropReasonIsForwardingDisabled(packetDropped)
attr title "packet drop: forwarding disabled, count"
scalar ExperimentNetwork2.router.ipv4.ip packetDropForwardingDisabled:sum(packetBytes) 0
attr interpolationmode none
attr source packetDropReasonIsForwardingDisabled(packetDropped)
attr title "packet drop: forwarding disabled, sum(packetBytes)"
scalar ExperimentNetwork2.router.ipv4.ip packetDropNoInterfaceFound:count 0
attr interpolationmode none
attr source packetDropReasonIsNoInterfaceFound(packetDropped)
attr title "packet drop: no interface found, count"
scalar ExperimentNetwork2.router.ipv4.ip packetDropNoInterfaceFound:sum(packetBytes) 0
attr interpolationmode none
attr source packetDropReasonIsNoInterfaceFound(packetDropped)
attr title "packet drop: no interface found, sum(packetBytes)"
scalar ExperimentNetwork2.router.ipv4.ip packetDropNoRouteFound:count 0
attr interpolationmode none
attr source packetDropReasonIsNoRouteFound(packetDropped)
attr title "packet drop: no route found, count"
scalar ExperimentNetwork2.router.ipv4.ip packetDropNoRouteFound:sum(packetBytes) 0
attr interpolationmode none
attr source packetDropReasonIsNoRouteFound(packetDropped)
attr title "packet drop: no route found, sum(packetBytes)"
scalar ExperimentNetwork2.router.ipv4.ip packetDropUndefined:count 0
attr interpolationmode none
attr source packetDropReasonIsUndefined(packetDropped)
attr title "packet drop: undefined, count"
scalar ExperimentNetwork2.router.ipv4.ip packetDropUndefined:sum(packetBytes) 0
attr interpolationmode none
attr source packetDropReasonIsUndefined(packetDropped)
attr title "packet drop: undefined, sum(packetBytes)"
scalar ExperimentNetwork2.router.ipv4.arp arpReplySent:count 0
attr source arpReplySent
attr title "ARP replies sent, count"
scalar ExperimentNetwork2.router.ipv4.arp arpReplySent:sum(packetBytes) 0
attr source arpReplySent
attr title "ARP replies sent, sum(packetBytes)"
scalar ExperimentNetwork2.router.ipv4.arp arpRequestSent:count 0
attr source arpRequestSent
attr title "ARP request sent, count"
scalar ExperimentNetwork2.router.ipv4.arp arpRequestSent:sum(packetBytes) 0
attr source arpRequestSent
attr title "ARP request sent, sum(packetBytes)"
scalar ExperimentNetwork2.router.ipv4.arp arpResolutionFailed:count 0
attr title "ARP failed resolutions, count"
scalar ExperimentNetwork2.router.ipv4.arp arpResolutionCompleted:count 0
attr title "ARP completed resolutions, count"
scalar ExperimentNetwork2.router.ipv4.arp arpResolutionInitiated:count 0
attr title "ARP initiated resolutions, count"
scalar ExperimentNetwork2.router1.lo[0].lo rcvdPkFromHl:count 0
attr interpolationmode none
attr source packetReceivedFromUpper
attr title "packets received from higher layer, count"
scalar ExperimentNetwork2.router1.lo[0].lo rcvdPkFromHl:sum(packetBytes) 0
attr interpolationmode none
attr source packetReceivedFromUpper
attr title "packets received from higher layer, sum(packetBytes)"
scalar ExperimentNetwork2.router1.lo[0].lo passedUpPk:count 0
attr interpolationmode none
attr source packetSentToUpper
attr title "packets passed to higher layer, count"
scalar ExperimentNetwork2.router1.lo[0].lo passedUpPk:sum(packetBytes) 0
attr interpolationmode none
attr source packetSentToUpper
attr title "packets passed to higher layer, sum(packetBytes)"
scalar ExperimentNetwork2.router1.eth[0].mac.queue packetPopped:count 0
attr interpolationmode none
attr title "packet popped, count"
scalar ExperimentNetwork2.router1.eth[0].mac.queue packetPopped:sum(packetBytes) 0
attr interpolationmode none
attr title "packet popped, sum(packetBytes)"
statistic ExperimentNetwork2.router1.eth[0].mac.queue queueingTime:histogram
field count 0
field mean nan
field stddev nan
field min nan
field max nan
field sum 0
field sqrsum 0
attr interpolationmode none
attr source queueingTime(packetPopped)
attr title "queueing times, histogram"
attr unit s
bin	-inf	0
bin	0	0
bin	1	0
scalar ExperimentNetwork2.router1.eth[0].mac.queue queueLength:max nan
attr interpolationmode sample-hold
attr source "count(packetPushed) - count(packetPopped) - count(packetRemoved) - count(packetDropped)"
attr title "queue length, max"
scalar ExperimentNetwork2.router1.eth[0].mac.queue queueLength:timeavg nan
attr interpolationmode sample-hold
attr source "count(packetPushed) - count(packetPopped) - count(packetRemoved) - count(packetDropped)"
attr title "queue length, timeavg"
scalar ExperimentNetwork2.router1.eth[0].mac.queue packetPushed:count 0
attr interpolationmode none
attr title "packet pushed, count"
scalar ExperimentNetwork2.router1.eth[0].mac.queue packetPushed:sum(packetBytes) 0
attr interpolationmode none
attr title "packet pushed, sum(packetBytes)"
scalar ExperimentNetwork2.router1.eth[0].mac.queue packetDropQueueOverflow:count 0
attr interpolationmode none
attr source packetDropReasonIsQueueOverflow(packetDropped)
attr title "packet drops: queue overflow, count"
scalar ExperimentNetwork2.router1.eth[0].mac.queue packetDropQueueOverflow:sum(packetBytes) 0
attr interpolationmode none
attr source packetDropReasonIsQueueOverflow(packetDropped)
attr title "packet drops: queue overflow, sum(packetBytes)"
scalar ExperimentNetwork2.router1.eth[0].mac.queue packetRemoved:count 0
attr interpolationmode none
attr title "packets removed, count"
scalar ExperimentNetwork2.router1.eth[0].mac.queue packetRemoved:sum(packetBytes) 0
attr interpolationmode none
attr title "packets removed, sum(packetBytes)"
scalar ExperimentNetwork2.router1.eth[0].mac "simulated time" 0.002111893041
scalar ExperimentNetwork2.router1.eth[0].mac full-duplex 1
scalar ExperimentNetwork2.router1.eth[0].mac "frames/sec sent" 0
scalar ExperimentNetwork2.router1.eth[0].mac "frames/sec rcvd" 0
scalar ExperimentNetwork2.router1.eth[0].mac "bits/sec sent" 0
scalar ExperimentNetwork2.router1.eth[0].mac "bits/sec rcvd" 0
scalar ExperimentNetwork2.router1.eth[0].mac "rx channel idle (%)" 100
scalar ExperimentNetwork2.router1.eth[0].mac "rx channel utilization (%)" 0
scalar ExperimentNetwork2.router1.eth[0].mac txPk:count 0
attr interpolationmode none
attr source packetSentToLower
attr title "packets transmitted, count"
scalar ExperimentNetwork2.router1.eth[0].mac txPk:sum(packetBytes) 0
attr interpolationmode none
attr source packetSentToLower
attr title "packets transmitted, sum(packetBytes)"
scalar ExperimentNetwork2.router1.eth[0].mac packetReceivedFromUpper:count 0
attr interpolationmode none
attr source packetReceivedFromUpper
attr title "packet bytes from higher layer, count"
scalar ExperimentNetwork2.router1.eth[0].mac packetReceivedFromUpper:sum(packetBytes) 0
attr interpolationmode none
attr source packetReceivedFromUpper
attr title "packet bytes from higher layer, sum(packetBytes)"
scalar ExperimentNetwork2.router1.eth[0].mac passedUpPk:count 0
attr interpolationmode none
attr source packetSentToUpper
attr title "packets passed to higher layer, count"
scalar ExperimentNetwork2.router1.eth[0].mac passedUpPk:sum(packetBytes) 0
attr interpolationmode none
attr source packetSentToUpper
attr title "packets passed to higher layer, sum(packetBytes)"
scalar ExperimentNetwork2.router1.eth[0].mac packetDropIncorrectlyReceived:count 0
attr interpolationmode none
attr source packetDropReasonIsIncorrectlyReceived(packetDropped)
attr title "packet drop: incorrectly received, count"
scalar ExperimentNetwork2.router1.eth[0].mac packetDropIncorrectlyReceived:sum(packetBytes) 0
attr interpolationmode none
attr source packetDropReasonIsIncorrectlyReceived(packetDropped)
attr title "packet drop: incorrectly received, sum(packetBytes)"
scalar ExperimentNetwork2.router1.eth[0].mac packetDropInterfaceDown:count 0
attr interpolationmode none
attr source packetDropReasonIsInterfaceDown(packetDropped)
attr title "packet drop: interface down, count"
scalar ExperimentNetwork2.router1.eth[0].mac packetDropInterfaceDown:sum(packetBytes) 0
attr interpolationmode none
attr source packetDropReasonIsInterfaceDown(packetDropped)
attr title "packet drop: interface down, sum(packetBytes)"
scalar ExperimentNetwork2.router1.eth[0].mac packetDropNotAddressedToUs:count 0
attr interpolationmode none
attr source packetDropReasonIsNotAddressedToUs(packetDropped)
attr title "packet drop: not addressed to us, count"
scalar ExperimentNetwork2.router1.eth[0].mac packetDropNotAddressedToUs:sum(packetBytes) 0
attr interpolationmode none
attr source packetDropReasonIsNotAddressedToUs(packetDropped)
attr title "packet drop: not addressed to us, sum(packetBytes)"
scalar ExperimentNetwork2.router1.eth[0].mac rxPausePkUnits:count 0
attr interpolationmode none
attr title "pause units received, count"
scalar ExperimentNetwork2.router1.eth[0].mac rxPausePkUnits:sum 0
attr interpolationmode none
attr title "pause units received, sum"
scalar ExperimentNetwork2.router1.eth[0].mac txPausePkUnits:count 0
attr interpolationmode none
attr title "pause units sent, count"
scalar ExperimentNetwork2.router1.eth[0].mac txPausePkUnits:sum 0
attr interpolationmode none
attr title "pause units sent, sum"
scalar ExperimentNetwork2.router1.eth[0].mac rxPkOk:count 0
attr interpolationmode none
attr source rxPkOk
attr title "packets received OK, count"
scalar ExperimentNetwork2.router1.eth[0].mac rxPkOk:sum(packetBytes) 0
attr interpolationmode none
attr source rxPkOk
attr title "packets received OK, sum(packetBytes)"
scalar ExperimentNetwork2.router1.eth[0].encap pauseSent:count 0
attr title "pause sent, count"
scalar ExperimentNetwork2.router1.eth[0].encap pauseSent:sum 0
attr title "pause sent, sum"
scalar ExperimentNetwork2.router1.eth[0].encap decapPk:count 0
attr interpolationmode none
attr source decapPk
attr title "packets decapsulated, count"
scalar ExperimentNetwork2.router1.eth[0].encap decapPk:sum(packetBytes) 0
attr interpolationmode none
attr source decapPk
attr title "packets decapsulated, sum(packetBytes)"
scalar ExperimentNetwork2.router1.eth[0].encap encapPk:count 0
attr interpolationmode none
attr source encapPk
attr title "packets encapsulated, count"
scalar ExperimentNetwork2.router1.eth[0].encap encapPk:sum(packetBytes) 0
attr interpolationmode none
attr source encapPk
attr title "packets encapsulated, sum(packetBytes)"
scalar ExperimentNetwork2.router1.eth[1].mac.queue packetPopped:count 0
attr interpolationmode none
attr title "packet popped, count"
scalar ExperimentNetwork2.router1.eth[1].mac.queue packetPopped:sum(packetBytes) 0
attr interpolationmode none
attr title "packet popped, sum(packetBytes)"
statistic ExperimentNetwork2.router1.eth[1].mac.queue queueingTime:histogram
field count 0
field mean nan
field stddev nan
field min nan
field max nan
field sum 0
field sqrsum 0
attr interpolationmode none
attr source queueingTime(packetPopped)
attr title "queueing times, histogram"
attr unit s
bin	-inf	0
bin	0	0
bin	1	0
scalar ExperimentNetwork2.router1.eth[1].mac.queue queueLength:max nan
attr interpolationmode sample-hold
attr source "count(packetPushed) - count(packetPopped) - count(packetRemoved) - count(packetDropped)"
attr title "queue length, max"
scalar ExperimentNetwork2.router1.eth[1].mac.queue queueLength:timeavg nan
attr interpolationmode sample-hold
attr source "count(packetPushed) - count(packetPopped) - count(packetRemoved) - count(packetDropped)"
attr title "queue length, timeavg"
scalar ExperimentNetwork2.router1.eth[1].mac.queue packetPushed:count 0
attr interpolationmode none
attr title "packet pushed, count"
scalar ExperimentNetwork2.router1.eth[1].mac.queue packetPushed:sum(packetBytes) 0
attr interpolationmode none
attr title "packet pushed, sum(packetBytes)"
scalar ExperimentNetwork2.router1.eth[1].mac.queue packetDropQueueOverflow:count 0
attr interpolationmode none
attr source packetDropReasonIsQueueOverflow(packetDropped)
attr title "packet drops: queue overflow, count"
scalar ExperimentNetwork2.router1.eth[1].mac.queue packetDropQueueOverflow:sum(packetBytes) 0
attr interpolationmode none
attr source packetDropReasonIsQueueOverflow(packetDropped)
attr title "packet drops: queue overflow, sum(packetBytes)"
scalar ExperimentNetwork2.router1.eth[1].mac.queue packetRemoved:count 0
attr interpolationmode none
attr title "packets removed, count"
scalar ExperimentNetwork2.router1.eth[1].mac.queue packetRemoved:sum(packetBytes) 0
attr interpolationmode none
attr title "packets removed, sum(packetBytes)"
scalar ExperimentNetwork2.router1.eth[1].mac "simulated time" 0.002111893041
scalar ExperimentNetwork2.router1.eth[1].mac full-duplex 1
scalar ExperimentNetwork2.router1.eth[1].mac "frames/sec sent" 0
scalar ExperimentNetwork2.router1.eth[1].mac "frames/sec rcvd" 0
scalar ExperimentNetwork2.router1.eth[1].mac "bits/sec sent" 0
scalar ExperimentNetwork2.router1.eth[1].mac "bits/sec rcvd" 0
scalar ExperimentNetwork2.router1.eth[1].mac "rx channel idle (%)" 100
scalar ExperimentNetwork2.router1.eth[1].mac "rx channel utilization (%)" 0
scalar ExperimentNetwork2.router1.eth[1].mac txPk:count 0
attr interpolationmode none
attr source packetSentToLower
attr title "packets transmitted, count"
scalar ExperimentNetwork2.router1.eth[1].mac txPk:sum(packetBytes) 0
attr interpolationmode none
attr source packetSentToLower
attr title "packets transmitted, sum(packetBytes)"
scalar ExperimentNetwork2.router1.eth[1].mac packetReceivedFromUpper:count 0
attr interpolationmode none
attr source packetReceivedFromUpper
attr title "packet bytes from higher layer, count"
scalar ExperimentNetwork2.router1.eth[1].mac packetReceivedFromUpper:sum(packetBytes) 0
attr interpolationmode none
attr source packetReceivedFromUpper
attr title "packet bytes from higher layer, sum(packetBytes)"
scalar ExperimentNetwork2.router1.eth[1].mac passedUpPk:count 0
attr interpolationmode none
attr source packetSentToUpper
attr title "packets passed to higher layer, count"
scalar ExperimentNetwork2.router1.eth[1].mac passedUpPk:sum(packetBytes) 0
attr interpolationmode none
attr source packetSentToUpper
attr title "packets passed to higher layer, sum(packetBytes)"
scalar ExperimentNetwork2.router1.eth[1].mac packetDropIncorrectlyReceived:count 0
attr interpolationmode none
attr source packetDropReasonIsIncorrectlyReceived(packetDropped)
attr title "packet drop: incorrectly received, count"
scalar ExperimentNetwork2.router1.eth[1].mac packetDropIncorrectlyReceived:sum(packetBytes) 0
attr interpolationmode none
attr source packetDropReasonIsIncorrectlyReceived(packetDropped)
attr title "packet drop: incorrectly received, sum(packetBytes)"
scalar ExperimentNetwork2.router1.eth[1].mac packetDropInterfaceDown:count 0
attr interpolationmode none
attr source packetDropReasonIsInterfaceDown(packetDropped)
attr title "packet drop: interface down, count"
scalar ExperimentNetwork2.router1.eth[1].mac packetDropInterfaceDown:sum(packetBytes) 0
attr interpolationmode none
attr source packetDropReasonIsInterfaceDown(packetDropped)
attr title "packet drop: interface down, sum(packetBytes)"
scalar ExperimentNetwork2.router1.eth[1].mac packetDropNotAddressedToUs:count 0
attr interpolationmode none
attr source packetDropReasonIsNotAddressedToUs(packetDropped)
attr title "packet drop: not addressed to us, count"
scalar ExperimentNetwork2.router1.eth[1].mac packetDropNotAddressedToUs:sum(packetBytes) 0
attr interpolationmode none
attr source packetDropReasonIsNotAddressedToUs(packetDropped)
attr title "packet drop: not addressed to us, sum(packetBytes)"
scalar ExperimentNetwork2.router1.eth[1].mac rxPausePkUnits:count 0
attr interpolationmode none
attr title "pause units received, count"
scalar ExperimentNetwork2.router1.eth[1].mac rxPausePkUnits:sum 0
attr interpolationmode none
attr title "pause units received, sum"
scalar ExperimentNetwork2.router1.eth[1].mac txPausePkUnits:count 0
attr interpolationmode none
attr title "pause units sent, count"
scalar ExperimentNetwork2.router1.eth[1].mac txPausePkUnits:sum 0
attr interpolationmode none
attr title "pause units sent, sum"
scalar ExperimentNetwork2.router1.eth[1].mac rxPkOk:count 0
attr interpolationmode none
attr source rxPkOk
attr title "packets received OK, count"
scalar ExperimentNetwork2.router1.eth[1].mac rxPkOk:sum(packetBytes) 0
attr interpolationmode none
attr source rxPkOk
attr title "packets received OK, sum(packetBytes)"
scalar ExperimentNetwork2.router1.eth[1].encap pauseSent:count 0
attr title "pause sent, count"
scalar ExperimentNetwork2.router1.eth[1].encap pauseSent:sum 0
attr title "pause sent, sum"
scalar ExperimentNetwork2.router1.eth[1].encap decapPk:count 0
attr interpolationmode none
attr source decapPk
attr title "packets decapsulated, count"
scalar ExperimentNetwork2.router1.eth[1].encap decapPk:sum(packetBytes) 0
attr interpolationmode none
attr source decapPk
attr title "packets decapsulated, sum(packetBytes)"
scalar ExperimentNetwork2.router1.eth[1].encap encapPk:count 0
attr interpolationmode none
attr source encapPk
attr title "packets encapsulated, count"
scalar ExperimentNetwork2.router1.eth[1].encap encapPk:sum(packetBytes) 0
attr interpolationmode none
attr source encapPk
attr title "packets encapsulated, sum(packetBytes)"
scalar ExperimentNetwork2.router1.eth[2].mac.queue packetPopped:count 0
attr interpolationmode none
attr title "packet popped, count"
scalar ExperimentNetwork2.router1.eth[2].mac.queue packetPopped:sum(packetBytes) 0
attr interpolationmode none
attr title "packet popped, sum(packetBytes)"
statistic ExperimentNetwork2.router1.eth[2].mac.queue queueingTime:histogram
field count 0
field mean nan
field stddev nan
field min nan
field max nan
field sum 0
field sqrsum 0
attr interpolationmode none
attr source queueingTime(packetPopped)
attr title "queueing times, histogram"
attr unit s
bin	-inf	0
bin	0	0
bin	1	0
scalar ExperimentNetwork2.router1.eth[2].mac.queue queueLength:max nan
attr interpolationmode sample-hold
attr source "count(packetPushed) - count(packetPopped) - count(packetRemoved) - count(packetDropped)"
attr title "queue length, max"
scalar ExperimentNetwork2.router1.eth[2].mac.queue queueLength:timeavg nan
attr interpolationmode sample-hold
attr source "count(packetPushed) - count(packetPopped) - count(packetRemoved) - count(packetDropped)"
attr title "queue length, timeavg"
scalar ExperimentNetwork2.router1.eth[2].mac.queue packetPushed:count 0
attr interpolationmode none
attr title "packet pushed, count"
scalar ExperimentNetwork2.router1.eth[2].mac.queue packetPushed:sum(packetBytes) 0
attr interpolationmode none
attr title "packet pushed, sum(packetBytes)"
scalar ExperimentNetwork2.router1.eth[2].mac.queue packetDropQueueOverflow:count 0
attr interpolationmode none
attr source packetDropReasonIsQueueOverflow(packetDropped)
attr title "packet drops: queue overflow, count"
scalar ExperimentNetwork2.router1.eth[2].mac.queue packetDropQueueOverflow:sum(packetBytes) 0
attr interpolationmode none
attr source packetDropReasonIsQueueOverflow(packetDropped)
attr title "packet drops: queue overflow, sum(packetBytes)"
scalar ExperimentNetwork2.router1.eth[2].mac.queue packetRemoved:count 0
attr interpolationmode none
attr title "packets removed, count"
scalar ExperimentNetwork2.router1.eth[2].mac.queue packetRemoved:sum(packetBytes) 0
attr interpolationmode none
attr title "packets removed, sum(packetBytes)"
scalar ExperimentNetwork2.router1.eth[2].mac "simulated time" 0.002111893041
scalar ExperimentNetwork2.router1.eth[2].mac full-duplex 1
scalar ExperimentNetwork2.router1.eth[2].mac "frames/sec sent" 0
scalar ExperimentNetwork2.router1.eth[2].mac "frames/sec rcvd" 0
scalar ExperimentNetwork2.router1.eth[2].mac "bits/sec sent" 0
scalar ExperimentNetwork2.router1.eth[2].mac "bits/sec rcvd" 0
scalar ExperimentNetwork2.router1.eth[2].mac "rx channel idle (%)" 100
scalar ExperimentNetwork2.router1.eth[2].mac "rx channel utilization (%)" 0
scalar ExperimentNetwork2.router1.eth[2].mac txPk:count 0
attr interpolationmode none
attr source packetSentToLower
attr title "packets transmitted, count"
scalar ExperimentNetwork2.router1.eth[2].mac txPk:sum(packetBytes) 0
attr interpolationmode none
attr source packetSentToLower
attr title "packets transmitted, sum(packetBytes)"
scalar ExperimentNetwork2.router1.eth[2].mac packetReceivedFromUpper:count 0
attr interpolationmode none
attr source packetReceivedFromUpper
attr title "packet bytes from higher layer, count"
scalar ExperimentNetwork2.router1.eth[2].mac packetReceivedFromUpper:sum(packetBytes) 0
attr interpolationmode none
attr source packetReceivedFromUpper
attr title "packet bytes from higher layer, sum(packetBytes)"
scalar ExperimentNetwork2.router1.eth[2].mac passedUpPk:count 0
attr interpolationmode none
attr source packetSentToUpper
attr title "packets passed to higher layer, count"
scalar ExperimentNetwork2.router1.eth[2].mac passedUpPk:sum(packetBytes) 0
attr interpolationmode none
attr source packetSentToUpper
attr title "packets passed to higher layer, sum(packetBytes)"
scalar ExperimentNetwork2.router1.eth[2].mac packetDropIncorrectlyReceived:count 0
attr interpolationmode none
attr source packetDropReasonIsIncorrectlyReceived(packetDropped)
attr title "packet drop: incorrectly received, count"
scalar ExperimentNetwork2.router1.eth[2].mac packetDropIncorrectlyReceived:sum(packetBytes) 0
attr interpolationmode none
attr source packetDropReasonIsIncorrectlyReceived(packetDropped)
attr title "packet drop: incorrectly received, sum(packetBytes)"
scalar ExperimentNetwork2.router1.eth[2].mac packetDropInterfaceDown:count 0
attr interpolationmode none
attr source packetDropReasonIsInterfaceDown(packetDropped)
attr title "packet drop: interface down, count"
scalar ExperimentNetwork2.router1.eth[2].mac packetDropInterfaceDown:sum(packetBytes) 0
attr interpolationmode none
attr source packetDropReasonIsInterfaceDown(packetDropped)
attr title "packet drop: interface down, sum(packetBytes)"
scalar ExperimentNetwork2.router1.eth[2].mac packetDropNotAddressedToUs:count 0
attr interpolationmode none
attr source packetDropReasonIsNotAddressedToUs(packetDropped)
attr title "packet drop: not addressed to us, count"
scalar ExperimentNetwork2.router1.eth[2].mac packetDropNotAddressedToUs:sum(packetBytes) 0
attr interpolationmode none
attr source packetDropReasonIsNotAddressedToUs(packetDropped)
attr title "packet drop: not addressed to us, sum(packetBytes)"
scalar ExperimentNetwork2.router1.eth[2].mac rxPausePkUnits:count 0
attr interpolationmode none
attr title "pause units received, count"
scalar ExperimentNetwork2.router1.eth[2].mac rxPausePkUnits:sum 0
attr interpolationmode none
attr title "pause units received, sum"
scalar ExperimentNetwork2.router1.eth[2].mac txPausePkUnits:count 0
attr interpolationmode none
attr title "pause units sent, count"
scalar ExperimentNetwork2.router1.eth[2].mac txPausePkUnits:sum 0
attr interpolationmode none
attr title "pause units sent, sum"
scalar ExperimentNetwork2.router1.eth[2].mac rxPkOk:count 0
attr interpolationmode none
attr source rxPkOk
attr title "packets received OK, count"
scalar ExperimentNetwork2.router1.eth[2].mac rxPkOk:sum(packetBytes) 0
attr interpolationmode none
attr source rxPkOk
attr title "packets received OK, sum(packetBytes)"
scalar ExperimentNetwork2.router1.eth[2].encap pauseSent:count 0
attr title "pause sent, count"
scalar ExperimentNetwork2.router1.eth[2].encap pauseSent:sum 0
attr title "pause sent, sum"
scalar ExperimentNetwork2.router1.eth[2].encap decapPk:count 0
attr interpolationmode none
attr source decapPk
attr title "packets decapsulated, count"
scalar ExperimentNetwork2.router1.eth[2].encap decapPk:sum(packetBytes) 0
attr interpolationmode none
attr source decapPk
attr title "packets decapsulated, sum(packetBytes)"
scalar ExperimentNetwork2.router1.eth[2].encap encapPk:count 0
attr interpolationmode none
attr source encapPk
attr title "packets encapsulated, count"
scalar ExperimentNetwork2.router1.eth[2].encap encapPk:sum(packetBytes) 0
attr interpolationmode none
attr source encapPk
attr title "packets encapsulated, sum(packetBytes)"
scalar ExperimentNetwork2.router1.ipv4.ip packetDropAddressResolutionFailed:count 0
attr interpolationmode none
attr source packetDropReasonIsAddressResolutionFailed(packetDropped)
attr title "packet drop: address resolution failed, count"
scalar ExperimentNetwork2.router1.ipv4.ip packetDropAddressResolutionFailed:sum(packetBytes) 0
attr interpolationmode none
attr source packetDropReasonIsAddressResolutionFailed(packetDropped)
attr title "packet drop: address resolution failed, sum(packetBytes)"
scalar ExperimentNetwork2.router1.ipv4.ip packetDropHopLimitReached:count 0
attr interpolationmode none
attr source packetDropReasonIsHopLimitReached(packetDropped)
attr title "packet drop: hop limit reached, count"
scalar ExperimentNetwork2.router1.ipv4.ip packetDropHopLimitReached:sum(packetBytes) 0
attr interpolationmode none
attr source packetDropReasonIsHopLimitReached(packetDropped)
attr title "packet drop: hop limit reached, sum(packetBytes)"
scalar ExperimentNetwork2.router1.ipv4.ip packetDropForwardingDisabled:count 0
attr interpolationmode none
attr source packetDropReasonIsForwardingDisabled(packetDropped)
attr title "packet drop: forwarding disabled, count"
scalar ExperimentNetwork2.router1.ipv4.ip packetDropForwardingDisabled:sum(packetBytes) 0
attr interpolationmode none
attr source packetDropReasonIsForwardingDisabled(packetDropped)
attr title "packet drop: forwarding disabled, sum(packetBytes)"
scalar ExperimentNetwork2.router1.ipv4.ip packetDropNoInterfaceFound:count 0
attr interpolationmode none
attr source packetDropReasonIsNoInterfaceFound(packetDropped)
attr title "packet drop: no interface found, count"
scalar ExperimentNetwork2.router1.ipv4.ip packetDropNoInterfaceFound:sum(packetBytes) 0
attr interpolationmode none
attr source packetDropReasonIsNoInterfaceFound(packetDropped)
attr title "packet drop: no interface found, sum(packetBytes)"
scalar ExperimentNetwork2.router1.ipv4.ip packetDropNoRouteFound:count 0
attr interpolationmode none
attr source packetDropReasonIsNoRouteFound(packetDropped)
attr title "packet drop: no route found, count"
scalar ExperimentNetwork2.router1.ipv4.ip packetDropNoRouteFound:sum(packetBytes) 0
attr interpolationmode none
attr source packetDropReasonIsNoRouteFound(packetDropped)
attr title "packet drop: no route found, sum(packetBytes)"
scalar ExperimentNetwork2.router1.ipv4.ip packetDropUndefined:count 0
attr interpolationmode none
attr source packetDropReasonIsUndefined(packetDropped)
attr title "packet drop: undefined, count"
scalar ExperimentNetwork2.router1.ipv4.ip packetDropUndefined:sum(packetBytes) 0
attr interpolationmode none
attr source packetDropReasonIsUndefined(packetDropped)
attr title "packet drop: undefined, sum(packetBytes)"
scalar ExperimentNetwork2.router1.ipv4.arp arpReplySent:count 0
attr source arpReplySent
attr title "ARP replies sent, count"
scalar ExperimentNetwork2.router1.ipv4.arp arpReplySent:sum(packetBytes) 0
attr source arpReplySent
attr title "ARP replies sent, sum(packetBytes)"
scalar ExperimentNetwork2.router1.ipv4.arp arpRequestSent:count 0
attr source arpRequestSent
attr title "ARP request sent, count"
scalar ExperimentNetwork2.router1.ipv4.arp arpRequestSent:sum(packetBytes) 0
attr source arpRequestSent
attr title "ARP request sent, sum(packetBytes)"
scalar ExperimentNetwork2.router1.ipv4.arp arpResolutionFailed:count 0
attr title "ARP failed resolutions, count"
scalar ExperimentNetwork2.router1.ipv4.arp arpResolutionCompleted:count 0
attr title "ARP completed resolutions, count"
scalar ExperimentNetwork2.router1.ipv4.arp arpResolutionInitiated:count 0
attr title "ARP initiated resolutions, count"
scalar ExperimentNetwork2.router2.lo[0].lo rcvdPkFromHl:count 0
attr interpolationmode none
attr source packetReceivedFromUpper
attr title "packets received from higher layer, count"
scalar ExperimentNetwork2.router2.lo[0].lo rcvdPkFromHl:sum(packetBytes) 0
attr interpolationmode none
attr source packetReceivedFromUpper
attr title "packets received from higher layer, sum(packetBytes)"
scalar ExperimentNetwork2.router2.lo[0].lo passedUpPk:count 0
attr interpolationmode none
attr source packetSentToUpper
attr title "packets passed to higher layer, count"
scalar ExperimentNetwork2.router2.lo[0].lo passedUpPk:sum(packetBytes) 0
attr interpolationmode none
attr source packetSentToUpper
attr title "packets passed to higher layer, sum(packetBytes)"
scalar ExperimentNetwork2.router2.eth[0].mac.queue packetPopped:count 0
attr interpolationmode none
attr title "packet popped, count"
scalar ExperimentNetwork2.router2.eth[0].mac.queue packetPopped:sum(packetBytes) 0
attr interpolationmode none
attr title "packet popped, sum(packetBytes)"
statistic ExperimentNetwork2.router2.eth[0].mac.queue queueingTime:histogram
field count 0
field mean nan
field stddev nan
field min nan
field max nan
field sum 0
field sqrsum 0
attr interpolationmode none
attr source queueingTime(packetPopped)
attr title "queueing times, histogram"
attr unit s
bin	-inf	0
bin	0	0
bin	1	0
scalar ExperimentNetwork2.router2.eth[0].mac.queue queueLength:max nan
attr interpolationmode sample-hold
attr source "count(packetPushed) - count(packetPopped) - count(packetRemoved) - count(packetDropped)"
attr title "queue length, max"
scalar ExperimentNetwork2.router2.eth[0].mac.queue queueLength:timeavg nan
attr interpolationmode sample-hold
attr source "count(packetPushed) - count(packetPopped) - count(packetRemoved) - count(packetDropped)"
attr title "queue length, timeavg"
scalar ExperimentNetwork2.router2.eth[0].mac.queue packetPushed:count 0
attr interpolationmode none
attr title "packet pushed, count"
scalar ExperimentNetwork2.router2.eth[0].mac.queue packetPushed:sum(packetBytes) 0
attr interpolationmode none
attr title "packet pushed, sum(packetBytes)"
scalar ExperimentNetwork2.router2.eth[0].mac.queue packetDropQueueOverflow:count 0
attr interpolationmode none
attr source packetDropReasonIsQueueOverflow(packetDropped)
attr title "packet drops: queue overflow, count"
scalar ExperimentNetwork2.router2.eth[0].mac.queue packetDropQueueOverflow:sum(packetBytes) 0
attr interpolationmode none
attr source packetDropReasonIsQueueOverflow(packetDropped)
attr title "packet drops: queue overflow, sum(packetBytes)"
scalar ExperimentNetwork2.router2.eth[0].mac.queue packetRemoved:count 0
attr interpolationmode none
attr title "packets removed, count"
scalar ExperimentNetwork2.router2.eth[0].mac.queue packetRemoved:sum(packetBytes) 0
attr interpolationmode none
attr title "packets removed, sum(packetBytes)"
scalar ExperimentNetwork2.router2.eth[0].mac "simulated time" 0.002111893041
scalar ExperimentNetwork2.router2.eth[0].mac full-duplex 1
scalar ExperimentNetwork2.router2.eth[0].mac "frames/sec sent" 0
scalar ExperimentNetwork2.router2.eth[0].mac "frames/sec rcvd" 0
scalar ExperimentNetwork2.router2.eth[0].mac "bits/sec sent" 0
scalar ExperimentNetwork2.router2.eth[0].mac "bits/sec rcvd" 0
scalar ExperimentNetwork2.router2.eth[0].mac "rx channel idle (%)" 100
scalar ExperimentNetwork2.router2.eth[0].mac "rx channel utilization (%)" 0
scalar ExperimentNetwork2.router2.eth[0].mac txPk:count 0
attr interpolationmode none
attr source packetSentToLower
attr title "packets transmitted, count"
scalar ExperimentNetwork2.router2.eth[0].mac txPk:sum(packetBytes) 0
attr interpolationmode none
attr source packetSentToLower
attr title "packets transmitted, sum(packetBytes)"
scalar ExperimentNetwork2.router2.eth[0].mac packetReceivedFromUpper:count 0
attr interpolationmode none
attr source packetReceivedFromUpper
attr title "packet bytes from higher layer, count"
scalar ExperimentNetwork2.router2.eth[0].mac packetReceivedFromUpper:sum(packetBytes) 0
attr interpolationmode none
attr source packetReceivedFromUpper
attr title "packet bytes from higher layer, sum(packetBytes)"
scalar ExperimentNetwork2.router2.eth[0].mac passedUpPk:count 0
attr interpolationmode none
attr source packetSentToUpper
attr title "packets passed to higher layer, count"
scalar ExperimentNetwork2.router2.eth[0].mac passedUpPk:sum(packetBytes) 0
attr interpolationmode none
attr source packetSentToUpper
attr title "packets passed to higher layer, sum(packetBytes)"
scalar ExperimentNetwork2.router2.eth[0].mac packetDropIncorrectlyReceived:count 0
attr interpolationmode none
attr source packetDropReasonIsIncorrectlyReceived(packetDropped)
attr title "packet drop: incorrectly received, count"
scalar ExperimentNetwork2.router2.eth[0].mac packetDropIncorrectlyReceived:sum(packetBytes) 0
attr interpolationmode none
attr source packetDropReasonIsIncorrectlyReceived(packetDropped)
attr title "packet drop: incorrectly received, sum(packetBytes)"
scalar ExperimentNetwork2.router2.eth[0].mac packetDropInterfaceDown:count 0
attr interpolationmode none
attr source packetDropReasonIsInterfaceDown(packetDropped)
attr title "packet drop: interface down, count"
scalar ExperimentNetwork2.router2.eth[0].mac packetDropInterfaceDown:sum(packetBytes) 0
attr interpolationmode none
attr source packetDropReasonIsInterfaceDown(packetDropped)
attr title "packet drop: interface down, sum(packetBytes)"
scalar ExperimentNetwork2.router2.eth[0].mac packetDropNotAddressedToUs:count 0
attr interpolationmode none
attr source packetDropReasonIsNotAddressedToUs(packetDropped)
attr title "packet drop: not addressed to us, count"
scalar ExperimentNetwork2.router2.eth[0].mac packetDropNotAddressedToUs:sum(packetBytes) 0
attr interpolationmode none
attr source packetDropReasonIsNotAddressedToUs(packetDropped)
attr title "packet drop: not addressed to us, sum(packetBytes)"
scalar ExperimentNetwork2.router2.eth[0].mac rxPausePkUnits:count 0
attr interpolationmode none
attr title "pause units received, count"
scalar ExperimentNetwork2.router2.eth[0].mac rxPausePkUnits:sum 0
attr interpolationmode none
attr title "pause units received, sum"
scalar ExperimentNetwork2.router2.eth[0].mac txPausePkUnits:count 0
attr interpolationmode none
attr title "pause units sent, count"
scalar ExperimentNetwork2.router2.eth[0].mac txPausePkUnits:sum 0
attr interpolationmode none
attr title "pause units sent, sum"
scalar ExperimentNetwork2.router2.eth[0].mac rxPkOk:count 0
attr interpolationmode none
attr source rxPkOk
attr title "packets received OK, count"
scalar ExperimentNetwork2.router2.eth[0].mac rxPkOk:sum(packetBytes) 0
attr interpolationmode none
attr source rxPkOk
attr title "packets received OK, sum(packetBytes)"
scalar ExperimentNetwork2.router2.eth[0].encap pauseSent:count 0
attr title "pause sent, count"
scalar ExperimentNetwork2.router2.eth[0].encap pauseSent:sum 0
attr title "pause sent, sum"
scalar ExperimentNetwork2.router2.eth[0].encap decapPk:count 0
attr interpolationmode none
attr source decapPk
attr title "packets decapsulated, count"
scalar ExperimentNetwork2.router2.eth[0].encap decapPk:sum(packetBytes) 0
attr interpolationmode none
attr source decapPk
attr title "packets decapsulated, sum(packetBytes)"
scalar ExperimentNetwork2.router2.eth[0].encap encapPk:count 0
attr interpolationmode none
attr source encapPk
attr title "packets encapsulated, count"
scalar ExperimentNetwork2.router2.eth[0].encap encapPk:sum(packetBytes) 0
attr interpolationmode none
attr source encapPk
attr title "packets encapsulated, sum(packetBytes)"
scalar ExperimentNetwork2.router2.eth[1].mac.queue packetPopped:count 0
attr interpolationmode none
attr title "packet popped, count"
scalar ExperimentNetwork2.router2.eth[1].mac.queue packetPopped:sum(packetBytes) 0
attr interpolationmode none
attr title "packet popped, sum(packetBytes)"
statistic ExperimentNetwork2.router2.eth[1].mac.queue queueingTime:histogram
field count 0
field mean nan
field stddev nan
field min nan
field max nan
field sum 0
field sqrsum 0
attr interpolationmode none
attr source queueingTime(packetPopped)
attr title "queueing times, histogram"
attr unit s
bin	-inf	0
bin	0	0
bin	1	0
scalar ExperimentNetwork2.router2.eth[1].mac.queue queueLength:max nan
attr interpolationmode sample-hold
attr source "count(packetPushed) - count(packetPopped) - count(packetRemoved) - count(packetDropped)"
attr title "queue length, max"
scalar ExperimentNetwork2.router2.eth[1].mac.queue queueLength:timeavg nan
attr interpolationmode sample-hold
attr source "count(packetPushed) - count(packetPopped) - count(packetRemoved) - count(packetDropped)"
attr title "queue length, timeavg"
scalar ExperimentNetwork2.router2.eth[1].mac.queue packetPushed:count 0
attr interpolationmode none
attr title "packet pushed, count"
scalar ExperimentNetwork2.router2.eth[1].mac.queue packetPushed:sum(packetBytes) 0
attr interpolationmode none
attr title "packet pushed, sum(packetBytes)"
scalar ExperimentNetwork2.router2.eth[1].mac.queue packetDropQueueOverflow:count 0
attr interpolationmode none
attr source packetDropReasonIsQueueOverflow(packetDropped)
attr title "packet drops: queue overflow, count"
scalar ExperimentNetwork2.router2.eth[1].mac.queue packetDropQueueOverflow:sum(packetBytes) 0
attr interpolationmode none
attr source packetDropReasonIsQueueOverflow(packetDropped)
attr title "packet drops: queue overflow, sum(packetBytes)"
scalar ExperimentNetwork2.router2.eth[1].mac.queue packetRemoved:count 0
attr interpolationmode none
attr title "packets removed, count"
scalar ExperimentNetwork2.router2.eth[1].mac.queue packetRemoved:sum(packetBytes) 0
attr interpolationmode none
attr title "packets removed, sum(packetBytes)"
scalar ExperimentNetwork2.router2.eth[1].mac "simulated time" 0.002111893041
scalar ExperimentNetwork2.router2.eth[1].mac full-duplex 1
scalar ExperimentNetwork2.router2.eth[1].mac "frames/sec sent" 0
scalar ExperimentNetwork2.router2.eth[1].mac "frames/sec rcvd" 0
scalar ExperimentNetwork2.router2.eth[1].mac "bits/sec sent" 0
scalar ExperimentNetwork2.router2.eth[1].mac "bits/sec rcvd" 0
scalar ExperimentNetwork2.router2.eth[1].mac "rx channel idle (%)" 100
scalar ExperimentNetwork2.router2.eth[1].mac "rx channel utilization (%)" 0
scalar ExperimentNetwork2.router2.eth[1].mac txPk:count 0
attr interpolationmode none
attr source packetSentToLower
attr title "packets transmitted, count"
scalar ExperimentNetwork2.router2.eth[1].mac txPk:sum(packetBytes) 0
attr interpolationmode none
attr source packetSentToLower
attr title "packets transmitted, sum(packetBytes)"
scalar ExperimentNetwork2.router2.eth[1].mac packetReceivedFromUpper:count 0
attr interpolationmode none
attr source packetReceivedFromUpper
attr title "packet bytes from higher layer, count"
scalar ExperimentNetwork2.router2.eth[1].mac packetReceivedFromUpper:sum(packetBytes) 0
attr interpolationmode none
attr source packetReceivedFromUpper
attr title "packet bytes from higher layer, sum(packetBytes)"
scalar ExperimentNetwork2.router2.eth[1].mac passedUpPk:count 0
attr interpolationmode none
attr source packetSentToUpper
attr title "packets passed to higher layer, count"
scalar ExperimentNetwork2.router2.eth[1].mac passedUpPk:sum(packetBytes) 0
attr interpolationmode none
attr source packetSentToUpper
attr title "packets passed to higher layer, sum(packetBytes)"
scalar ExperimentNetwork2.router2.eth[1].mac packetDropIncorrectlyReceived:count 0
attr interpolationmode none
attr source packetDropReasonIsIncorrectlyReceived(packetDropped)
attr title "packet drop: incorrectly received, count"
scalar ExperimentNetwork2.router2.eth[1].mac packetDropIncorrectlyReceived:sum(packetBytes) 0
attr interpolationmode none
attr source packetDropReasonIsIncorrectlyReceived(packetDropped)
attr title "packet drop: incorrectly received, sum(packetBytes)"
scalar ExperimentNetwork2.router2.eth[1].mac packetDropInterfaceDown:count 0
attr interpolationmode none
attr source packetDropReasonIsInterfaceDown(packetDropped)
attr title "packet drop: interface down, count"
scalar ExperimentNetwork2.router2.eth[1].mac packetDropInterfaceDown:sum(packetBytes) 0
attr interpolationmode none
attr source packetDropReasonIsInterfaceDown(packetDropped)
attr title "packet drop: interface down, sum(packetBytes)"
scalar ExperimentNetwork2.router2.eth[1].mac packetDropNotAddressedToUs:count 0
attr interpolationmode none
attr source packetDropReasonIsNotAddressedToUs(packetDropped)
attr title "packet drop: not addressed to us, count"
scalar ExperimentNetwork2.router2.eth[1].mac packetDropNotAddressedToUs:sum(packetBytes) 0
attr interpolationmode none
attr source packetDropReasonIsNotAddressedToUs(packetDropped)
attr title "packet drop: not addressed to us, sum(packetBytes)"
scalar ExperimentNetwork2.router2.eth[1].mac rxPausePkUnits:count 0
attr interpolationmode none
attr title "pause units received, count"
scalar ExperimentNetwork2.router2.eth[1].mac rxPausePkUnits:sum 0
attr interpolationmode none
attr title "pause units received, sum"
scalar ExperimentNetwork2.router2.eth[1].mac txPausePkUnits:count 0
attr interpolationmode none
attr title "pause units sent, count"
scalar ExperimentNetwork2.router2.eth[1].mac txPausePkUnits:sum 0
attr interpolationmode none
attr title "pause units sent, sum"
scalar ExperimentNetwork2.router2.eth[1].mac rxPkOk:count 0
attr interpolationmode none
attr source rxPkOk
attr title "packets received OK, count"
scalar ExperimentNetwork2.router2.eth[1].mac rxPkOk:sum(packetBytes) 0
attr interpolationmode none
attr source rxPkOk
attr title "packets received OK, sum(packetBytes)"
scalar ExperimentNetwork2.router2.eth[1].encap pauseSent:count 0
attr title "pause sent, count"
scalar ExperimentNetwork2.router2.eth[1].encap pauseSent:sum 0
attr title "pause sent, sum"
scalar ExperimentNetwork2.router2.eth[1].encap decapPk:count 0
attr interpolationmode none
attr source decapPk
attr title "packets decapsulated, count"
scalar ExperimentNetwork2.router2.eth[1].encap decapPk:sum(packetBytes) 0
attr interpolationmode none
attr source decapPk
attr title "packets decapsulated, sum(packetBytes)"
scalar ExperimentNetwork2.router2.eth[1].encap encapPk:count 0
attr interpolationmode none
attr source encapPk
attr title "packets encapsulated, count"
scalar ExperimentNetwork2.router2.eth[1].encap encapPk:sum(packetBytes) 0
attr interpolationmode none
attr source encapPk
attr title "packets encapsulated, sum(packetBytes)"
scalar ExperimentNetwork2.router2.eth[2].mac.queue packetPopped:count 0
attr interpolationmode none
attr title "packet popped, count"
scalar ExperimentNetwork2.router2.eth[2].mac.queue packetPopped:sum(packetBytes) 0
attr interpolationmode none
attr title "packet popped, sum(packetBytes)"
statistic ExperimentNetwork2.router2.eth[2].mac.queue queueingTime:histogram
field count 0
field mean nan
field stddev nan
field min nan
field max nan
field sum 0
field sqrsum 0
attr interpolationmode none
attr source queueingTime(packetPopped)
attr title "queueing times, histogram"
attr unit s
bin	-inf	0
bin	0	0
bin	1	0
scalar ExperimentNetwork2.router2.eth[2].mac.queue queueLength:max nan
attr interpolationmode sample-hold
attr source "count(packetPushed) - count(packetPopped) - count(packetRemoved) - count(packetDropped)"
attr title "queue length, max"
scalar ExperimentNetwork2.router2.eth[2].mac.queue queueLength:timeavg nan
attr interpolationmode sample-hold
attr source "count(packetPushed) - count(packetPopped) - count(packetRemoved) - count(packetDropped)"
attr title "queue length, timeavg"
scalar ExperimentNetwork2.router2.eth[2].mac.queue packetPushed:count 0
attr interpolationmode none
attr title "packet pushed, count"
scalar ExperimentNetwork2.router2.eth[2].mac.queue packetPushed:sum(packetBytes) 0
attr interpolationmode none
attr title "packet pushed, sum(packetBytes)"
scalar ExperimentNetwork2.router2.eth[2].mac.queue packetDropQueueOverflow:count 0
attr interpolationmode none
attr source packetDropReasonIsQueueOverflow(packetDropped)
attr title "packet drops: queue overflow, count"
scalar ExperimentNetwork2.router2.eth[2].mac.queue packetDropQueueOverflow:sum(packetBytes) 0
attr interpolationmode none
attr source packetDropReasonIsQueueOverflow(packetDropped)
attr title "packet drops: queue overflow, sum(packetBytes)"
scalar ExperimentNetwork2.router2.eth[2].mac.queue packetRemoved:count 0
attr interpolationmode none
attr title "packets removed, count"
scalar ExperimentNetwork2.router2.eth[2].mac.queue packetRemoved:sum(packetBytes) 0
attr interpolationmode none
attr title "packets removed, sum(packetBytes)"
scalar ExperimentNetwork2.router2.eth[2].mac "simulated time" 0.002111893041
scalar ExperimentNetwork2.router2.eth[2].mac full-duplex 1
scalar ExperimentNetwork2.router2.eth[2].mac "frames/sec sent" 0
scalar ExperimentNetwork2.router2.eth[2].mac "frames/sec rcvd" 0
scalar ExperimentNetwork2.router2.eth[2].mac "bits/sec sent" 0
scalar ExperimentNetwork2.router2.eth[2].mac "bits/sec rcvd" 0
scalar ExperimentNetwork2.router2.eth[2].mac "rx channel idle (%)" 100
scalar ExperimentNetwork2.router2.eth[2].mac "rx channel utilization (%)" 0
scalar ExperimentNetwork2.router2.eth[2].mac txPk:count 0
attr interpolationmode none
attr source packetSentToLower
attr title "packets transmitted, count"
scalar ExperimentNetwork2.router2.eth[2].mac txPk:sum(packetBytes) 0
attr interpolationmode none
attr source packetSentToLower
attr title "packets transmitted, sum(packetBytes)"
scalar ExperimentNetwork2.router2.eth[2].mac packetReceivedFromUpper:count 0
attr interpolationmode none
attr source packetReceivedFromUpper
attr title "packet bytes from higher layer, count"
scalar ExperimentNetwork2.router2.eth[2].mac packetReceivedFromUpper:sum(packetBytes) 0
attr interpolationmode none
attr source packetReceivedFromUpper
attr title "packet bytes from higher layer, sum(packetBytes)"
scalar ExperimentNetwork2.router2.eth[2].mac passedUpPk:count 0
attr interpolationmode none
attr source packetSentToUpper
attr title "packets passed to higher layer, count"
scalar ExperimentNetwork2.router2.eth[2].mac passedUpPk:sum(packetBytes) 0
attr interpolationmode none
attr source packetSentToUpper
attr title "packets passed to higher layer, sum(packetBytes)"
scalar ExperimentNetwork2.router2.eth[2].mac packetDropIncorrectlyReceived:count 0
attr interpolationmode none
attr source packetDropReasonIsIncorrectlyReceived(packetDropped)
attr title "packet drop: incorrectly received, count"
scalar ExperimentNetwork2.router2.eth[2].mac packetDropIncorrectlyReceived:sum(packetBytes) 0
attr interpolationmode none
attr source packetDropReasonIsIncorrectlyReceived(packetDropped)
attr title "packet drop: incorrectly received, sum(packetBytes)"
scalar ExperimentNetwork2.router2.eth[2].mac packetDropInterfaceDown:count 0
attr interpolationmode none
attr source packetDropReasonIsInterfaceDown(packetDropped)
attr title "packet drop: interface down, count"
scalar ExperimentNetwork2.router2.eth[2].mac packetDropInterfaceDown:sum(packetBytes) 0
attr interpolationmode none
attr source packetDropReasonIsInterfaceDown(packetDropped)
attr title "packet drop: interface down, sum(packetBytes)"
scalar ExperimentNetwork2.router2.eth[2].mac packetDropNotAddressedToUs:count 0
attr interpolationmode none
attr source packetDropReasonIsNotAddressedToUs(packetDropped)
attr title "packet drop: not addressed to us, count"
scalar ExperimentNetwork2.router2.eth[2].mac packetDropNotAddressedToUs:sum(packetBytes) 0
attr interpolationmode none
attr source packetDropReasonIsNotAddressedToUs(packetDropped)
attr title "packet drop: not addressed to us, sum(packetBytes)"
scalar ExperimentNetwork2.router2.eth[2].mac rxPausePkUnits:count 0
attr interpolationmode none
attr title "pause units received, count"
scalar ExperimentNetwork2.router2.eth[2].mac rxPausePkUnits:sum 0
attr interpolationmode none
attr title "pause units received, sum"
scalar ExperimentNetwork2.router2.eth[2].mac txPausePkUnits:count 0
attr interpolationmode none
attr title "pause units sent, count"
scalar ExperimentNetwork2.router2.eth[2].mac txPausePkUnits:sum 0
attr interpolationmode none
attr title "pause units sent, sum"
scalar ExperimentNetwork2.router2.eth[2].mac rxPkOk:count 0
attr interpolationmode none
attr source rxPkOk
attr title "packets received OK, count"
scalar ExperimentNetwork2.router2.eth[2].mac rxPkOk:sum(packetBytes) 0
attr interpolationmode none
attr source rxPkOk
attr title "packets received OK, sum(packetBytes)"
scalar ExperimentNetwork2.router2.eth[2].encap pauseSent:count 0
attr title "pause sent, count"
scalar ExperimentNetwork2.router2.eth[2].encap pauseSent:sum 0
attr title "pause sent, sum"
scalar ExperimentNetwork2.router2.eth[2].encap decapPk:count 0
attr interpolationmode none
attr source decapPk
attr title "packets decapsulated, count"
scalar ExperimentNetwork2.router2.eth[2].encap decapPk:sum(packetBytes) 0
attr interpolationmode none
attr source decapPk
attr title "packets decapsulated, sum(packetBytes)"
scalar ExperimentNetwork2.router2.eth[2].encap encapPk:count 0
attr interpolationmode none
attr source encapPk
attr title "packets encapsulated, count"
scalar ExperimentNetwork2.router2.eth[2].encap encapPk:sum(packetBytes) 0
attr interpolationmode none
attr source encapPk
attr title "packets encapsulated, sum(packetBytes)"
scalar ExperimentNetwork2.router2.ipv4.ip packetDropAddressResolutionFailed:count 0
attr interpolationmode none
attr source packetDropReasonIsAddressResolutionFailed(packetDropped)
attr title "packet drop: address resolution failed, count"
scalar ExperimentNetwork2.router2.ipv4.ip packetDropAddressResolutionFailed:sum(packetBytes) 0
attr interpolationmode none
attr source packetDropReasonIsAddressResolutionFailed(packetDropped)
attr title "packet drop: address resolution failed, sum(packetBytes)"
scalar ExperimentNetwork2.router2.ipv4.ip packetDropHopLimitReached:count 0
attr interpolationmode none
attr source packetDropReasonIsHopLimitReached(packetDropped)
attr title "packet drop: hop limit reached, count"
scalar ExperimentNetwork2.router2.ipv4.ip packetDropHopLimitReached:sum(packetBytes) 0
attr interpolationmode none
attr source packetDropReasonIsHopLimitReached(packetDropped)
attr title "packet drop: hop limit reached, sum(packetBytes)"
scalar ExperimentNetwork2.router2.ipv4.ip packetDropForwardingDisabled:count 0
attr interpolationmode none
attr source packetDropReasonIsForwardingDisabled(packetDropped)
attr title "packet drop: forwarding disabled, count"
scalar ExperimentNetwork2.router2.ipv4.ip packetDropForwardingDisabled:sum(packetBytes) 0
attr interpolationmode none
attr source packetDropReasonIsForwardingDisabled(packetDropped)
attr title "packet drop: forwarding disabled, sum(packetBytes)"
scalar ExperimentNetwork2.router2.ipv4.ip packetDropNoInterfaceFound:count 0
attr interpolationmode none
attr source packetDropReasonIsNoInterfaceFound(packetDropped)
attr title "packet drop: no interface found, count"
scalar ExperimentNetwork2.router2.ipv4.ip packetDropNoInterfaceFound:sum(packetBytes) 0
attr interpolationmode none
attr source packetDropReasonIsNoInterfaceFound(packetDropped)
attr title "packet drop: no interface found, sum(packetBytes)"
scalar ExperimentNetwork2.router2.ipv4.ip packetDropNoRouteFound:count 0
attr interpolationmode none
attr source packetDropReasonIsNoRouteFound(packetDropped)
attr title "packet drop: no route found, count"
scalar ExperimentNetwork2.router2.ipv4.ip packetDropNoRouteFound:sum(packetBytes) 0
attr interpolationmode none
attr source packetDropReasonIsNoRouteFound(packetDropped)
attr title "packet drop: no route found, sum(packetBytes)"
scalar ExperimentNetwork2.router2.ipv4.ip packetDropUndefined:count 0
attr interpolationmode none
attr source packetDropReasonIsUndefined(packetDropped)
attr title "packet drop: undefined, count"
scalar ExperimentNetwork2.router2.ipv4.ip packetDropUndefined:sum(packetBytes) 0
attr interpolationmode none
attr source packetDropReasonIsUndefined(packetDropped)
attr title "packet drop: undefined, sum(packetBytes)"
scalar ExperimentNetwork2.router2.ipv4.arp arpReplySent:count 0
attr source arpReplySent
attr title "ARP replies sent, count"
scalar ExperimentNetwork2.router2.ipv4.arp arpReplySent:sum(packetBytes) 0
attr source arpReplySent
attr title "ARP replies sent, sum(packetBytes)"
scalar ExperimentNetwork2.router2.ipv4.arp arpRequestSent:count 0
attr source arpRequestSent
attr title "ARP request sent, count"
scalar ExperimentNetwork2.router2.ipv4.arp arpRequestSent:sum(packetBytes) 0
attr source arpRequestSent
attr title "ARP request sent, sum(packetBytes)"
scalar ExperimentNetwork2.router2.ipv4.arp arpResolutionFailed:count 0
attr title "ARP failed resolutions, count"
scalar ExperimentNetwork2.router2.ipv4.arp arpResolutionCompleted:count 0
attr title "ARP completed resolutions, count"
scalar ExperimentNetwork2.router2.ipv4.arp arpResolutionInitiated:count 0
attr title "ARP initiated resolutions, count"
scalar ExperimentNetwork2.router3.lo[0].lo rcvdPkFromHl:count 0
attr interpolationmode none
attr source packetReceivedFromUpper
attr title "packets received from higher layer, count"
scalar ExperimentNetwork2.router3.lo[0].lo rcvdPkFromHl:sum(packetBytes) 0
attr interpolationmode none
attr source packetReceivedFromUpper
attr title "packets received from higher layer, sum(packetBytes)"
scalar ExperimentNetwork2.router3.lo[0].lo passedUpPk:count 0
attr interpolationmode none
attr source packetSentToUpper
attr title "packets passed to higher layer, count"
scalar ExperimentNetwork2.router3.lo[0].lo passedUpPk:sum(packetBytes) 0
attr interpolationmode none
attr source packetSentToUpper
attr title "packets passed to higher layer, sum(packetBytes)"
scalar ExperimentNetwork2.router3.eth[0].mac.queue packetPopped:count 0
attr interpolationmode none
attr title "packet popped, count"
scalar ExperimentNetwork2.router3.eth[0].mac.queue packetPopped:sum(packetBytes) 0
attr interpolationmode none
attr title "packet popped, sum(packetBytes)"
statistic ExperimentNetwork2.router3.eth[0].mac.queue queueingTime:histogram
field count 0
field mean nan
field stddev nan
field min nan
field max nan
field sum 0
field sqrsum 0
attr interpolationmode none
attr source queueingTime(packetPopped)
attr title "queueing times, histogram"
attr unit s
bin	-inf	0
bin	0	0
bin	1	0
scalar ExperimentNetwork2.router3.eth[0].mac.queue queueLength:max nan
attr interpolationmode sample-hold
attr source "count(packetPushed) - count(packetPopped) - count(packetRemoved) - count(packetDropped)"
attr title "queue length, max"
scalar ExperimentNetwork2.router3.eth[0].mac.queue queueLength:timeavg nan
attr interpolationmode sample-hold
attr source "count(packetPushed) - count(packetPopped) - count(packetRemoved) - count(packetDropped)"
attr title "queue length, timeavg"
scalar ExperimentNetwork2.router3.eth[0].mac.queue packetPushed:count 0
attr interpolationmode none
attr title "packet pushed, count"
scalar ExperimentNetwork2.router3.eth[0].mac.queue packetPushed:sum(packetBytes) 0
attr interpolationmode none
attr title "packet pushed, sum(packetBytes)"
scalar ExperimentNetwork2.router3.eth[0].mac.queue packetDropQueueOverflow:count 0
attr interpolationmode none
attr source packetDropReasonIsQueueOverflow(packetDropped)
attr title "packet drops: queue overflow, count"
scalar ExperimentNetwork2.router3.eth[0].mac.queue packetDropQueueOverflow:sum(packetBytes) 0
attr interpolationmode none
attr source packetDropReasonIsQueueOverflow(packetDropped)
attr title "packet drops: queue overflow, sum(packetBytes)"
scalar ExperimentNetwork2.router3.eth[0].mac.queue packetRemoved:count 0
attr interpolationmode none
attr title "packets removed, count"
scalar ExperimentNetwork2.router3.eth[0].mac.queue packetRemoved:sum(packetBytes) 0
attr interpolationmode none
attr title "packets removed, sum(packetBytes)"
scalar ExperimentNetwork2.router3.eth[0].mac "simulated time" 0.002111893041
scalar ExperimentNetwork2.router3.eth[0].mac full-duplex 1
scalar ExperimentNetwork2.router3.eth[0].mac "frames/sec sent" 0
scalar ExperimentNetwork2.router3.eth[0].mac "frames/sec rcvd" 0
scalar ExperimentNetwork2.router3.eth[0].mac "bits/sec sent" 0
scalar ExperimentNetwork2.router3.eth[0].mac "bits/sec rcvd" 0
scalar ExperimentNetwork2.router3.eth[0].mac "rx channel idle (%)" 100
scalar ExperimentNetwork2.router3.eth[0].mac "rx channel utilization (%)" 0
scalar ExperimentNetwork2.router3.eth[0].mac txPk:count 0
attr interpolationmode none
attr source packetSentToLower
attr title "packets transmitted, count"
scalar ExperimentNetwork2.router3.eth[0].mac txPk:sum(packetBytes) 0
attr interpolationmode none
attr source packetSentToLower
attr title "packets transmitted, sum(packetBytes)"
scalar ExperimentNetwork2.router3.eth[0].mac packetReceivedFromUpper:count 0
attr interpolationmode none
attr source packetReceivedFromUpper
attr title "packet bytes from higher layer, count"
scalar ExperimentNetwork2.router3.eth[0].mac packetReceivedFromUpper:sum(packetBytes) 0
attr interpolationmode none
attr source packetReceivedFromUpper
attr title "packet bytes from higher layer, sum(packetBytes)"
scalar ExperimentNetwork2.router3.eth[0].mac passedUpPk:count 0
attr interpolationmode none
attr source packetSentToUpper
attr title "packets passed to higher layer, count"
scalar ExperimentNetwork2.router3.eth[0].mac passedUpPk:sum(packetBytes) 0
attr interpolationmode none
attr source packetSentToUpper
attr title "packets passed to higher layer, sum(packetBytes)"
scalar ExperimentNetwork2.router3.eth[0].mac packetDropIncorrectlyReceived:count 0
attr interpolationmode none
attr source packetDropReasonIsIncorrectlyReceived(packetDropped)
attr title "packet drop: incorrectly received, count"
scalar ExperimentNetwork2.router3.eth[0].mac packetDropIncorrectlyReceived:sum(packetBytes) 0
attr interpolationmode none
attr source packetDropReasonIsIncorrectlyReceived(packetDropped)
attr title "packet drop: incorrectly received, sum(packetBytes)"
[...]
attr interpolationmode none
attr source packetDropReasonIsNotAddressedToUs(packetDropped)
attr title "packet drop: not addressed to us, count"
scalar ExperimentNetwork2.router11.eth[1].mac packetDropNotAddressedToUs:sum(packetBytes) 0
attr interpolationmode none
attr source packetDropReasonIsNotAddressedToUs(packetDropped)
attr title "packet drop: not addressed to us, sum(packetBytes)"
scalar ExperimentNetwork2.router11.eth[1].mac rxPausePkUnits:count 0
attr interpolationmode none
attr title "pause units received, count"
scalar ExperimentNetwork2.router11.eth[1].mac rxPausePkUnits:sum 0
attr interpolationmode none
attr title "pause units received, sum"
scalar ExperimentNetwork2.router11.eth[1].mac txPausePkUnits:count 0
attr interpolationmode none
attr title "pause units sent, count"
scalar ExperimentNetwork2.router11.eth[1].mac txPausePkUnits:sum 0
attr interpolationmode none
attr title "pause units sent, sum"
scalar ExperimentNetwork2.router11.eth[1].mac rxPkOk:count 0
attr interpolationmode none
attr source rxPkOk
attr title "packets received OK, count"
scalar ExperimentNetwork2.router11.eth[1].mac rxPkOk:sum(packetBytes) 0
attr interpolationmode none
attr source rxPkOk
attr title "packets received OK, sum(packetBytes)"
scalar ExperimentNetwork2.router11.eth[1].encap pauseSent:count 0
attr title "pause sent, count"
scalar ExperimentNetwork2.router11.eth[1].encap pauseSent:sum 0
attr title "pause sent, sum"
scalar ExperimentNetwork2.router11.eth[1].encap decapPk:count 0
attr interpolationmode none
attr source decapPk
attr title "packets decapsulated, count"
scalar ExperimentNetwork2.router11.eth[1].encap decapPk:sum(packetBytes) 0
attr interpolationmode none
attr source decapPk
attr title "packets decapsulated, sum(packetBytes)"
scalar ExperimentNetwork2.router11.eth[1].encap encapPk:count 0
attr interpolationmode none
attr source encapPk
attr title "packets encapsulated, count"
scalar ExperimentNetwork2.router11.eth[1].encap encapPk:sum(packetBytes) 0
attr interpolationmode none
attr source encapPk
attr title "packets encapsulated, sum(packetBytes)"
scalar ExperimentNetwork2.router11.eth[2].mac.queue packetPopped:count 0
attr interpolationmode none
attr title "packet popped, count"
scalar ExperimentNetwork2.router11.eth[2].mac.queue packetPopped:sum(packetBytes) 0
attr interpolationmode none
attr title "packet popped, sum(packetBytes)"
statistic ExperimentNetwork2.router11.eth[2].mac.queue queueingTime:histogram
field count 0
field mean nan
field stddev nan
field min nan
field max nan
field sum 0
field sqrsum 0
attr interpolationmode none
attr source queueingTime(packetPopped)
attr title "queueing times, histogram"
attr unit s
bin	-inf	0
bin	0	0
bin	1	0
scalar ExperimentNetwork2.router11.eth[2].mac.queue queueLength:max nan
attr interpolationmode sample-hold
attr source "count(packetPushed) - count(packetPopped) - count(packetRemoved) - count(packetDropped)"
attr title "queue length, max"
scalar ExperimentNetwork2.router11.eth[2].mac.queue queueLength:timeavg nan
attr interpolationmode sample-hold
attr source "count(packetPushed) - count(packetPopped) - count(packetRemoved) - count(packetDropped)"
attr title "queue length, timeavg"
scalar ExperimentNetwork2.router11.eth[2].mac.queue packetPushed:count 0
attr interpolationmode none
attr title "packet pushed, count"
scalar ExperimentNetwork2.router11.eth[2].mac.queue packetPushed:sum(packetBytes) 0
attr interpolationmode none
attr title "packet pushed, sum(packetBytes)"
scalar ExperimentNetwork2.router11.eth[2].mac.queue packetDropQueueOverflow:count 0
attr interpolationmode none
attr source packetDropReasonIsQueueOverflow(packetDropped)
attr title "packet drops: queue overflow, count"
scalar ExperimentNetwork2.router11.eth[2].mac.queue packetDropQueueOverflow:sum(packetBytes) 0
attr interpolationmode none
attr source packetDropReasonIsQueueOverflow(packetDropped)
attr title "packet drops: queue overflow, sum(packetBytes)"
scalar ExperimentNetwork2.router11.eth[2].mac.queue packetRemoved:count 0
attr interpolationmode none
attr title "packets removed, count"
scalar ExperimentNetwork2.router11.eth[2].mac.queue packetRemoved:sum(packetBytes) 0
attr interpolationmode none
attr title "packets removed, sum(packetBytes)"
scalar ExperimentNetwork2.router11.eth[2].mac "simulated time" 0.002111893041
scalar ExperimentNetwork2.router11.eth[2].mac full-duplex 1
scalar ExperimentNetwork2.router11.eth[2].mac "frames/sec sent" 0
scalar ExperimentNetwork2.router11.eth[2].mac "frames/sec rcvd" 0
scalar ExperimentNetwork2.router11.eth[2].mac "bits/sec sent" 0
scalar ExperimentNetwork2.router11.eth[2].mac "bits/sec rcvd" 0
scalar ExperimentNetwork2.router11.eth[2].mac "rx channel idle (%)" 100
scalar ExperimentNetwork2.router11.eth[2].mac "rx channel utilization (%)" 0
scalar ExperimentNetwork2.router11.eth[2].mac txPk:count 0
attr interpolationmode none
attr source packetSentToLower
attr title "packets transmitted, count"
scalar ExperimentNetwork2.router11.eth[2].mac txPk:sum(packetBytes) 0
attr interpolationmode none
attr source packetSentToLower
attr title "packets transmitted, sum(packetBytes)"
scalar ExperimentNetwork2.router11.eth[2].mac packetReceivedFromUpper:count 0
attr interpolationmode none
attr source packetReceivedFromUpper
attr title "packet bytes from higher layer, count"
scalar ExperimentNetwork2.router11.eth[2].mac packetReceivedFromUpper:sum(packetBytes) 0
attr interpolationmode none
attr source packetReceivedFromUpper
attr title "packet bytes from higher layer, sum(packetBytes)"
scalar ExperimentNetwork2.router11.eth[2].mac passedUpPk:count 0
attr interpolationmode none
attr source packetSentToUpper
attr title "packets passed to higher layer, count"
scalar ExperimentNetwork2.router11.eth[2].mac passedUpPk:sum(packetBytes) 0
attr interpolationmode none
attr source packetSentToUpper
attr title "packets passed to higher layer, sum(packetBytes)"
scalar ExperimentNetwork2.router11.eth[2].mac packetDropIncorrectlyReceived:count 0
attr interpolationmode none
attr source packetDropReasonIsIncorrectlyReceived(packetDropped)
attr title "packet drop: incorrectly received, count"
scalar ExperimentNetwork2.router11.eth[2].mac packetDropIncorrectlyReceived:sum(packetBytes) 0
attr interpolationmode none
attr source packetDropReasonIsIncorrectlyReceived(packetDropped)
attr title "packet drop: incorrectly received, sum(packetBytes)"
scalar ExperimentNetwork2.router11.eth[2].mac packetDropInterfaceDown:count 0
attr interpolationmode none
attr source packetDropReasonIsInterfaceDown(packetDropped)
attr title "packet drop: interface down, count"
scalar ExperimentNetwork2.router11.eth[2].mac packetDropInterfaceDown:sum(packetBytes) 0
attr interpolationmode none
attr source packetDropReasonIsInterfaceDown(packetDropped)
attr title "packet drop: interface down, sum(packetBytes)"
scalar ExperimentNetwork2.router11.eth[2].mac packetDropNotAddressedToUs:count 0
attr interpolationmode none
attr source packetDropReasonIsNotAddressedToUs(packetDropped)
attr title "packet drop: not addressed to us, count"
scalar ExperimentNetwork2.router11.eth[2].mac packetDropNotAddressedToUs:sum(packetBytes) 0
attr interpolationmode none
attr source packetDropReasonIsNotAddressedToUs(packetDropped)
attr title "packet drop: not addressed to us, sum(packetBytes)"
scalar ExperimentNetwork2.router11.eth[2].mac rxPausePkUnits:count 0
attr interpolationmode none
attr title "pause units received, count"
scalar ExperimentNetwork2.router11.eth[2].mac rxPausePkUnits:sum 0
attr interpolationmode none
attr title "pause units received, sum"
scalar ExperimentNetwork2.router11.eth[2].mac txPausePkUnits:count 0
attr interpolationmode none
attr title "pause units sent, count"
scalar ExperimentNetwork2.router11.eth[2].mac txPausePkUnits:sum 0
attr interpolationmode none
attr title "pause units sent, sum"
scalar ExperimentNetwork2.router11.eth[2].mac rxPkOk:count 0
attr interpolationmode none
attr source rxPkOk
attr title "packets received OK, count"
scalar ExperimentNetwork2.router11.eth[2].mac rxPkOk:sum(packetBytes) 0
attr interpolationmode none
attr source rxPkOk
attr title "packets received OK, sum(packetBytes)"
scalar ExperimentNetwork2.router11.eth[2].encap pauseSent:count 0
attr title "pause sent, count"
scalar ExperimentNetwork2.router11.eth[2].encap pauseSent:sum 0
attr title "pause sent, sum"
scalar ExperimentNetwork2.router11.eth[2].encap decapPk:count 0
attr interpolationmode none
attr source decapPk
attr title "packets decapsulated, count"
scalar ExperimentNetwork2.router11.eth[2].encap decapPk:sum(packetBytes) 0
attr interpolationmode none
attr source decapPk
attr title "packets decapsulated, sum(packetBytes)"
scalar ExperimentNetwork2.router11.eth[2].encap encapPk:count 0
attr interpolationmode none
attr source encapPk
attr title "packets encapsulated, count"
scalar ExperimentNetwork2.router11.eth[2].encap encapPk:sum(packetBytes) 0
attr interpolationmode none
attr source encapPk
attr title "packets encapsulated, sum(packetBytes)"
scalar ExperimentNetwork2.router11.eth[3].mac.queue packetPopped:count 0
attr interpolationmode none
attr title "packet popped, count"
scalar ExperimentNetwork2.router11.eth[3].mac.queue packetPopped:sum(packetBytes) 0
attr interpolationmode none
attr title "packet popped, sum(packetBytes)"
statistic ExperimentNetwork2.router11.eth[3].mac.queue queueingTime:histogram
field count 0
field mean nan
field stddev nan
field min nan
field max nan
field sum 0
field sqrsum 0
attr interpolationmode none
attr source queueingTime(packetPopped)
attr title "queueing times, histogram"
attr unit s
bin	-inf	0
bin	0	0
bin	1	0
scalar ExperimentNetwork2.router11.eth[3].mac.queue queueLength:max nan
attr interpolationmode sample-hold
attr source "count(packetPushed) - count(packetPopped) - count(packetRemoved) - count(packetDropped)"
attr title "queue length, max"
scalar ExperimentNetwork2.router11.eth[3].mac.queue queueLength:timeavg nan
attr interpolationmode sample-hold
attr source "count(packetPushed) - count(packetPopped) - count(packetRemoved) - count(packetDropped)"
attr title "queue length, timeavg"
scalar ExperimentNetwork2.router11.eth[3].mac.queue packetPushed:count 0
attr interpolationmode none
attr title "packet pushed, count"
scalar ExperimentNetwork2.router11.eth[3].mac.queue packetPushed:sum(packetBytes) 0
attr interpolationmode none
attr title "packet pushed, sum(packetBytes)"
scalar ExperimentNetwork2.router11.eth[3].mac.queue packetDropQueueOverflow:count 0
attr interpolationmode none
attr source packetDropReasonIsQueueOverflow(packetDropped)
attr title "packet drops: queue overflow, count"
scalar ExperimentNetwork2.router11.eth[3].mac.queue packetDropQueueOverflow:sum(packetBytes) 0
attr interpolationmode none
attr source packetDropReasonIsQueueOverflow(packetDropped)
attr title "packet drops: queue overflow, sum(packetBytes)"
scalar ExperimentNetwork2.router11.eth[3].mac.queue packetRemoved:count 0
attr interpolationmode none
attr title "packets removed, count"
scalar ExperimentNetwork2.router11.eth[3].mac.queue packetRemoved:sum(packetBytes) 0
attr interpolationmode none
attr title "packets removed, sum(packetBytes)"
scalar ExperimentNetwork2.router11.eth[3].mac "simulated time" 0.002111893041
scalar ExperimentNetwork2.router11.eth[3].mac full-duplex 1
scalar ExperimentNetwork2.router11.eth[3].mac "frames/sec sent" 0
scalar ExperimentNetwork2.router11.eth[3].mac "frames/sec rcvd" 0
scalar ExperimentNetwork2.router11.eth[3].mac "bits/sec sent" 0
scalar ExperimentNetwork2.router11.eth[3].mac "bits/sec rcvd" 0
scalar ExperimentNetwork2.router11.eth[3].mac "rx channel idle (%)" 100
scalar ExperimentNetwork2.router11.eth[3].mac "rx channel utilization (%)" 0
scalar ExperimentNetwork2.router11.eth[3].mac txPk:count 0
attr interpolationmode none
attr source packetSentToLower
attr title "packets transmitted, count"
scalar ExperimentNetwork2.router11.eth[3].mac txPk:sum(packetBytes) 0
attr interpolationmode none
attr source packetSentToLower
attr title "packets transmitted, sum(packetBytes)"
scalar ExperimentNetwork2.router11.eth[3].mac packetReceivedFromUpper:count 0
attr interpolationmode none
attr source packetReceivedFromUpper
attr title "packet bytes from higher layer, count"
scalar ExperimentNetwork2.router11.eth[3].mac packetReceivedFromUpper:sum(packetBytes) 0
attr interpolationmode none
attr source packetReceivedFromUpper
attr title "packet bytes from higher layer, sum(packetBytes)"
scalar ExperimentNetwork2.router11.eth[3].mac passedUpPk:count 0
attr interpolationmode none
attr source packetSentToUpper
attr title "packets passed to higher layer, count"
scalar ExperimentNetwork2.router11.eth[3].mac passedUpPk:sum(packetBytes) 0
attr interpolationmode none
attr source packetSentToUpper
attr title "packets passed to higher layer, sum(packetBytes)"
scalar ExperimentNetwork2.router11.eth[3].mac packetDropIncorrectlyReceived:count 0
attr interpolationmode none
attr source packetDropReasonIsIncorrectlyReceived(packetDropped)
attr title "packet drop: incorrectly received, count"
scalar ExperimentNetwork2.router11.eth[3].mac packetDropIncorrectlyReceived:sum(packetBytes) 0
attr interpolationmode none
attr source packetDropReasonIsIncorrectlyReceived(packetDropped)
attr title "packet drop: incorrectly received, sum(packetBytes)"
scalar ExperimentNetwork2.router11.eth[3].mac packetDropInterfaceDown:count 0
attr interpolationmode none
attr source packetDropReasonIsInterfaceDown(packetDropped)
attr title "packet drop: interface down, count"
scalar ExperimentNetwork2.router11.eth[3].mac packetDropInterfaceDown:sum(packetBytes) 0
attr interpolationmode none
attr source packetDropReasonIsInterfaceDown(packetDropped)
attr title "packet drop: interface down, sum(packetBytes)"
scalar ExperimentNetwork2.router11.eth[3].mac packetDropNotAddressedToUs:count 0
attr interpolationmode none
attr source packetDropReasonIsNotAddressedToUs(packetDropped)
attr title "packet drop: not addressed to us, count"
scalar ExperimentNetwork2.router11.eth[3].mac packetDropNotAddressedToUs:sum(packetBytes) 0
attr interpolationmode none
attr source packetDropReasonIsNotAddressedToUs(packetDropped)
attr title "packet drop: not addressed to us, sum(packetBytes)"
scalar ExperimentNetwork2.router11.eth[3].mac rxPausePkUnits:count 0
attr interpolationmode none
attr title "pause units received, count"
scalar ExperimentNetwork2.router11.eth[3].mac rxPausePkUnits:sum 0
attr interpolationmode none
attr title "pause units received, sum"
scalar ExperimentNetwork2.router11.eth[3].mac txPausePkUnits:count 0
attr interpolationmode none
attr title "pause units sent, count"
scalar ExperimentNetwork2.router11.eth[3].mac txPausePkUnits:sum 0
attr interpolationmode none
attr title "pause units sent, sum"
scalar ExperimentNetwork2.router11.eth[3].mac rxPkOk:count 0
attr interpolationmode none
attr source rxPkOk
attr title "packets received OK, count"
scalar ExperimentNetwork2.router11.eth[3].mac rxPkOk:sum(packetBytes) 0
attr interpolationmode none
attr source rxPkOk
attr title "packets received OK, sum(packetBytes)"
scalar ExperimentNetwork2.router11.eth[3].encap pauseSent:count 0
attr title "pause sent, count"
scalar ExperimentNetwork2.router11.eth[3].encap pauseSent:sum 0
attr title "pause sent, sum"
scalar ExperimentNetwork2.router11.eth[3].encap decapPk:count 0
attr interpolationmode none
attr source decapPk
attr title "packets decapsulated, count"
scalar ExperimentNetwork2.router11.eth[3].encap decapPk:sum(packetBytes) 0
attr interpolationmode none
attr source decapPk
attr title "packets decapsulated, sum(packetBytes)"
scalar ExperimentNetwork2.router11.eth[3].encap encapPk:count 0
attr interpolationmode none
attr source encapPk
attr title "packets encapsulated, count"
scalar ExperimentNetwork2.router11.eth[3].encap encapPk:sum(packetBytes) 0
attr interpolationmode none
attr source encapPk
attr title "packets encapsulated, sum(packetBytes)"
scalar ExperimentNetwork2.router11.ipv4.ip packetDropAddressResolutionFailed:count 0
attr interpolationmode none
attr source packetDropReasonIsAddressResolutionFailed(packetDropped)
attr title "packet drop: address resolution failed, count"
scalar ExperimentNetwork2.router11.ipv4.ip packetDropAddressResolutionFailed:sum(packetBytes) 0
attr interpolationmode none
attr source packetDropReasonIsAddressResolutionFailed(packetDropped)
attr title "packet drop: address resolution failed, sum(packetBytes)"
scalar ExperimentNetwork2.router11.ipv4.ip packetDropHopLimitReached:count 0
attr interpolationmode none
attr source packetDropReasonIsHopLimitReached(packetDropped)
attr title "packet drop: hop limit reached, count"
scalar ExperimentNetwork2.router11.ipv4.ip packetDropHopLimitReached:sum(packetBytes) 0
attr interpolationmode none
attr source packetDropReasonIsHopLimitReached(packetDropped)
attr title "packet drop: hop limit reached, sum(packetBytes)"
scalar ExperimentNetwork2.router11.ipv4.ip packetDropForwardingDisabled:count 0
attr interpolationmode none
attr source packetDropReasonIsForwardingDisabled(packetDropped)
attr title "packet drop: forwarding disabled, count"
scalar ExperimentNetwork2.router11.ipv4.ip packetDropForwardingDisabled:sum(packetBytes) 0
attr interpolationmode none
attr source packetDropReasonIsForwardingDisabled(packetDropped)
attr title "packet drop: forwarding disabled, sum(packetBytes)"
scalar ExperimentNetwork2.router11.ipv4.ip packetDropNoInterfaceFound:count 0
attr interpolationmode none
attr source packetDropReasonIsNoInterfaceFound(packetDropped)
attr title "packet drop: no interface found, count"
scalar ExperimentNetwork2.router11.ipv4.ip packetDropNoInterfaceFound:sum(packetBytes) 0
attr interpolationmode none
attr source packetDropReasonIsNoInterfaceFound(packetDropped)
attr title "packet drop: no interface found, sum(packetBytes)"
scalar ExperimentNetwork2.router11.ipv4.ip packetDropNoRouteFound:count 0
attr interpolationmode none
attr source packetDropReasonIsNoRouteFound(packetDropped)
attr title "packet drop: no route found, count"
scalar ExperimentNetwork2.router11.ipv4.ip packetDropNoRouteFound:sum(packetBytes) 0
attr interpolationmode none
attr source packetDropReasonIsNoRouteFound(packetDropped)
attr title "packet drop: no route found, sum(packetBytes)"
scalar ExperimentNetwork2.router11.ipv4.ip packetDropUndefined:count 0
attr interpolationmode none
attr source packetDropReasonIsUndefined(packetDropped)
attr title "packet drop: undefined, count"
scalar ExperimentNetwork2.router11.ipv4.ip packetDropUndefined:sum(packetBytes) 0
attr interpolationmode none
attr source packetDropReasonIsUndefined(packetDropped)
attr title "packet drop: undefined, sum(packetBytes)"
scalar ExperimentNetwork2.router11.ipv4.arp arpReplySent:count 0
attr source arpReplySent
attr title "ARP replies sent, count"
scalar ExperimentNetwork2.router11.ipv4.arp arpReplySent:sum(packetBytes) 0
attr source arpReplySent
attr title "ARP replies sent, sum(packetBytes)"
scalar ExperimentNetwork2.router11.ipv4.arp arpRequestSent:count 0
attr source arpRequestSent
attr title "ARP request sent, count"
scalar ExperimentNetwork2.router11.ipv4.arp arpRequestSent:sum(packetBytes) 0
attr source arpRequestSent
attr title "ARP request sent, sum(packetBytes)"
scalar ExperimentNetwork2.router11.ipv4.arp arpResolutionFailed:count 0
attr title "ARP failed resolutions, count"
scalar ExperimentNetwork2.router11.ipv4.arp arpResolutionCompleted:count 0
attr title "ARP completed resolutions, count"
scalar ExperimentNetwork2.router11.ipv4.arp arpResolutionInitiated:count 0
attr title "ARP initiated resolutions, count"

