file 303783 1599480850                                          
version 2
run ExperimentNetwork1-0-20200907-20:09:32-9028
attr configname ExperimentNetwork1
attr datetime 20200907-20:09:32
attr experiment ExperimentNetwork1
attr inifile omnetpp.ini
attr iterationvars ""
attr iterationvarsf ""
attr measurement ""
attr network ExperimentNetwork1
attr processid 9028
attr repetition 0
attr replication #0
attr resultdir results
attr runnumber 0
attr seedset 0
param *.numBot 2
param *.numHost 4
param *.bot*[*].numPktGen 4
param *.bot*[*].pg[*].localPort 1234
param *.bot*[*].pg[*].destPort 1234
param *.bot*[*].pg[*].startTime "uniform(0.01ms, 0.05ms)"
param *.bot*[*].pg[*].sendInterval 0.01ms
param *.bot*[*].pg[0].packetType "\"UDP\""
param *.bot*[*].pg[0].packetName "\"UDPFlood\""
param *.bot*[*].pg[1].packetType "\"TCP_SYN\""
param *.bot*[*].pg[1].packetName "\"SYNFlood\""
param *.bot*[*].pg[2].packetType "\"TCP_SYNACK\""
param *.bot*[*].pg[2].packetName "\"SYNACKFlood\""
param *.bot*[*].pg[3].packetType "\"TCP_ACK\""
param *.bot*[*].pg[3].packetName "\"ACKFlood\""
param *.bot1[0].pg[*].destAddr "\"host2[0]\""
param *.bot1[1].pg[*].destAddr "\"host3[0]\""
param *.bot2[0].pg[*].destAddr "\"host1[0]\""
param *.bot2[1].pg[*].destAddr "\"host4[0]\""
param *.bot3[0].pg[*].destAddr "\"host4[0]\""
param *.bot3[1].pg[*].destAddr "\"host1[0]\""
param *.bot4[0].pg[*].destAddr "\"host3[0]\""
param *.bot4[1].pg[*].destAddr "\"host2[0]\""
param *.host*[*].numApps 1
param *.host*[*].app[*].typename "\"PingApp\""
param *.host*[*].app[*].sendInterval 0.02ms
param *.host*[*].app[*].startTime "uniform(0.01ms, 0.05ms)"
param *.host1[0].app[*].destAddr "\"host1[1]\""
param *.host1[1].app[*].destAddr "\"host2[0]\""
param *.host1[2].app[*].destAddr "\"host3[0]\""
param *.host1[3].app[*].destAddr "\"host4[0]\""
param *.host2[0].app[*].destAddr "\"host2[1]\""
param *.host2[1].app[*].destAddr "\"host1[0]\""
param *.host2[2].app[*].destAddr "\"host3[0]\""
param *.host2[3].app[*].destAddr "\"host4[0]\""
param *.host3[0].app[*].destAddr "\"host3[1]\""
param *.host3[1].app[*].destAddr "\"host1[0]\""
param *.host3[2].app[*].destAddr "\"host2[0]\""
param *.host3[3].app[*].destAddr "\"host4[0]\""
param *.host4[0].app[*].destAddr "\"host4[1]\""
param *.host4[1].app[*].destAddr "\"host2[0]\""
param *.host4[2].app[*].destAddr "\"host3[0]\""
param *.host4[3].app[*].destAddr "\"host4[0]\""
param *.internetCloud.ipv4Delayer.config "xml(\"<internetCloud symmetric='true'>   \t\t\t\t\t\t\t\t\t\t<parameters name='good'>     \t\t\t\t\t\t\t\t\t\t<traffic src='**' dest='**' delay='10ms+truncnormal(100ms,20ms)' datarate='uniform(100kbps,500kbps)' drop='uniform(0,1) &lt; uniform(0.01, 0.05)' />   \t\t\t\t\t\t\t\t\t\t</parameters> \t\t\t\t\t\t\t\t\t</internetCloud>\")"
param *.visualizer.*.interfaceTableVisualizer.displayInterfaceTables true

vector 0 ExperimentNetwork1.host1[0].app[0] pingTxSeq:vector ETV
attr interpolationmode none
attr title "ping tx seq, vector"
0	152469 170 1 4065 0.000010808736 0.000130808736 7 0 6 21 91
vector 1 ExperimentNetwork1.host1[0].ipv4.arp arpRequestSent:vector(packetBytes) ETV
attr source arpRequestSent
attr title "ARP request sent, vector(packetBytes)"
1	152639 23 3 3 0.000010808736 0.000010808736 1 28 28 28 784
vector 2 ExperimentNetwork1.host1[0].eth[0].encap encapPk:vector(packetBytes) ETV
attr interpolationmode none
attr source encapPk
attr title "packets encapsulated, vector(packetBytes)"
2	152662 253 4 4067 0.000010808736 0.000130808736 10 28 84 740 58832
vector 3 ExperimentNetwork1.host1[0].eth[0].mac packetReceivedFromUpper:vector(packetBytes) ETV
attr interpolationmode none
attr source packetReceivedFromUpper
attr title "packet bytes from higher layer, vector(packetBytes)"
3	152915 261 5 4068 0.000010808736 0.000130808736 10 46 102 920 88712
vector 4 ExperimentNetwork1.host1[0].eth[0].mac.queue packetPushed:vector(packetBytes) ETV
attr interpolationmode none
attr title "packet pushed, vector(packetBytes)"
4	153176 261 5 4068 0.000010808736 0.000130808736 10 64 102 944 91424
vector 5 ExperimentNetwork1.host1[0].eth[0].mac.queue queueLength:vector ETV
attr interpolationmode sample-hold
attr source "count(packetPushed) - count(packetPopped) - count(packetRemoved) - count(packetDropped)"
attr title "queue length, vector"
5	153437 461 5 4068 0.000010808736 0.000130808736 19 0 2 12 14
vector 6 ExperimentNetwork1.host1[0].eth[0].mac.queue packetPopped:vector(packetBytes) ETV
attr interpolationmode none
attr title "packet popped, vector(packetBytes)"
6	153898 234 5 4061 0.000010808736 0.000130328736 9 64 102 842 81020
vector 7 ExperimentNetwork1.host1[0].eth[0].mac.queue queueingTime:vector ETV
attr interpolationmode none
attr source queueingTime(packetPopped)
attr title "queueing times, vector"
attr unit s
7	154132 251 5 4061 0.000010808736 0.000130328736 9 0 1.0999075e-005 2.033815e-005 1.8623092571125e-010
vector 8 ExperimentNetwork1.bot2[1].ipv4.arp arpRequestSent:vector(packetBytes) ETV
attr source arpRequestSent
attr title "ARP request sent, vector(packetBytes)"
8	154383 23 7 7 0.000012268519 0.000012268519 1 28 28 28 784
vector 9 ExperimentNetwork1.bot2[1].eth[0].encap encapPk:vector(packetBytes) ETV
attr interpolationmode none
attr source encapPk
attr title "packets encapsulated, vector(packetBytes)"
9	154406 1164 8 4130 0.000012268519 0.000131901384 45 28 1500 17848 24803584
vector 10 ExperimentNetwork1.bot2[1].eth[0].mac packetReceivedFromUpper:vector(packetBytes) ETV
attr interpolationmode none
attr source packetReceivedFromUpper
attr title "packet bytes from higher layer, vector(packetBytes)"
10	155570 1209 9 4131 0.000012268519 0.000131901384 45 46 1518 18658 25460692
vector 11 ExperimentNetwork1.bot2[1].eth[0].mac.queue packetPushed:vector(packetBytes) ETV
attr interpolationmode none
attr title "packet pushed, vector(packetBytes)"
11	156779 1209 9 4131 0.000012268519 0.000131901384 45 64 1518 18874 25486828
vector 12 ExperimentNetwork1.bot2[1].eth[0].mac.queue queueLength:vector ETV
attr interpolationmode sample-hold
attr source "count(packetPushed) - count(packetPopped) - count(packetRemoved) - count(packetDropped)"
attr title "queue length, vector"
12	157988 1295 9 4131 0.000012268519 0.000131901384 50 0 40 845 22241
vector 13 ExperimentNetwork1.bot2[1].eth[0].mac.queue packetPopped:vector(packetBytes) ETV
attr interpolationmode none
attr title "packet popped, vector(packetBytes)"
13	159283 129 9 572 0.000012268519 0.000044048519 5 64 1518 1774 2320708
vector 14 ExperimentNetwork1.bot2[1].eth[0].mac.queue queueingTime:vector ETV
attr interpolationmode none
attr source queueingTime(packetPopped)
attr title "queueing times, vector"
attr unit s
14	159412 152 9 572 0.000012268519 0.000044048519 5 0 1.6545031e-005 3.6705031e-005 4.9953005079096e-010
vector 15 ExperimentNetwork1.bot4[1].ipv4.arp arpRequestSent:vector(packetBytes) ETV
attr source arpRequestSent
attr title "ARP request sent, vector(packetBytes)"
15	159564 25 11 11 0.000012841442 0.000012841442 1 28 28 28 784
vector 16 ExperimentNetwork1.bot4[1].eth[0].encap encapPk:vector(packetBytes) ETV
attr interpolationmode none
attr source encapPk
attr title "packets encapsulated, vector(packetBytes)"
16	159589 1243 12 3865 0.000012841442 0.000125926875 46 28 1500 19348 27053584
vector 17 ExperimentNetwork1.bot4[1].eth[0].mac packetReceivedFromUpper:vector(packetBytes) ETV
attr interpolationmode none
attr source packetReceivedFromUpper
attr title "packet bytes from higher layer, vector(packetBytes)"
17	160832 1243 13 3866 0.000012841442 0.000125926875 46 46 1518 20176 27765016
vector 18 ExperimentNetwork1.bot4[1].eth[0].mac.queue packetPushed:vector(packetBytes) ETV
attr interpolationmode none
attr title "packet pushed, vector(packetBytes)"
18	162075 1243 13 3866 0.000012841442 0.000125926875 46 64 1518 20392 27791152
vector 19 ExperimentNetwork1.bot4[1].eth[0].mac.queue queueLength:vector ETV
attr interpolationmode sample-hold
attr source "count(packetPushed) - count(packetPopped) - count(packetRemoved) - count(packetDropped)"
attr title "queue length, vector"
19	163318 1256 13 3866 0.000012841442 0.000125926875 48 0 44 992 29372
vector 20 ExperimentNetwork1.bot4[1].eth[0].mac.queue packetPopped:vector(packetBytes) ETV
attr interpolationmode none
attr title "packet popped, vector(packetBytes)"
20	164574 52 13 89 0.000012841442 0.000024461442 2 64 1518 1582 2308420
vector 21 ExperimentNetwork1.bot4[1].eth[0].mac.queue queueingTime:vector ETV
attr interpolationmode none
attr source queueingTime(packetPopped)
attr title "queueing times, vector"
attr unit s
21	164626 48 13 89 0.000012841442 0.000024461442 2 0 0 0 0
vector 22 ExperimentNetwork1.host2[1].app[0] pingTxSeq:vector ETV
attr interpolationmode none
attr title "ping tx seq, vector"
22	164674 153 16 3453 0.000015614031 0.000115614031 6 0 5 15 55
vector 23 ExperimentNetwork1.host2[1].ipv4.arp arpRequestSent:vector(packetBytes) ETV
attr source arpRequestSent
attr title "ARP request sent, vector(packetBytes)"
23	164827 25 18 18 0.000015614031 0.000015614031 1 28 28 28 784
vector 24 ExperimentNetwork1.host2[1].eth[0].encap encapPk:vector(packetBytes) ETV
attr interpolationmode none
attr source encapPk
attr title "packets encapsulated, vector(packetBytes)"
24	164852 289 19 3581 0.000015614031 0.00011882627 11 28 84 868 71344
vector 25 ExperimentNetwork1.host2[1].eth[0].mac packetReceivedFromUpper:vector(packetBytes) ETV
attr interpolationmode none
attr source packetReceivedFromUpper
attr title "packet bytes from higher layer, vector(packetBytes)"
25	165141 299 20 3582 0.000015614031 0.00011882627 11 46 102 1066 106156
vector 26 ExperimentNetwork1.host2[1].eth[0].mac.queue packetPushed:vector(packetBytes) ETV
attr interpolationmode none
attr title "packet pushed, vector(packetBytes)"
26	165440 299 20 3582 0.000015614031 0.00011882627 11 64 102 1084 108136
vector 27 ExperimentNetwork1.host2[1].eth[0].mac.queue queueLength:vector ETV
attr interpolationmode sample-hold
attr source "count(packetPushed) - count(packetPopped) - count(packetRemoved) - count(packetDropped)"
attr title "queue length, vector"
27	165739 553 20 4003 0.000015614031 0.00012900627 22 0 2 15 19
vector 28 ExperimentNetwork1.host2[1].eth[0].mac.queue packetPopped:vector(packetBytes) ETV
attr interpolationmode none
attr title "packet popped, vector(packetBytes)"
28	166292 296 20 4003 0.000015614031 0.00012900627 11 64 102 1084 108136
vector 29 ExperimentNetwork1.host2[1].eth[0].mac.queue queueingTime:vector ETV
attr interpolationmode none
attr source queueingTime(packetPopped)
attr title "queueing times, vector"
attr unit s
29	166588 345 20 4003 0.000015614031 0.00012900627 11 0 1.066e-005 4.4316717e-005 3.6562232877936e-010
vector 30 ExperimentNetwork1.host1[0].eth[0].mac txPk:vector(packetBytes) ETV
attr interpolationmode none
attr source packetSentToLower
attr title "packets transmitted, vector(packetBytes)"
30	166933 219 21 4029 0.000016568736 0.000129368736 8 64 102 778 76924
vector 31 ExperimentNetwork1.connectRouter1.eth[2].mac rxPkOk:vector(packetBytes) ETV
attr interpolationmode none
attr source rxPkOk
attr title "packets received OK, vector(packetBytes)"
31	167152 219 22 4031 0.000016618736 0.000129418736 8 64 102 778 76924
vector 32 ExperimentNetwork1.connectRouter1.eth[2].mac passedUpPk:vector(packetBytes) ETV
attr interpolationmode none
attr source packetSentToUpper
attr title "packets passed to higher layer, vector(packetBytes)"
32	167371 219 22 4031 0.000016618736 0.000129418736 8 64 102 778 76924
vector 33 ExperimentNetwork1.connectRouter1.eth[2].encap decapPk:vector(packetBytes) ETV
attr interpolationmode none
attr source decapPk
attr title "packets decapsulated, vector(packetBytes)"
33	167590 212 23 4033 0.000016618736 0.000129418736 8 46 84 634 51508
vector 34 ExperimentNetwork1.connectRouter1.ipv4.arp arpReplySent:vector(packetBytes) ETV
attr source arpReplySent
attr title "ARP replies sent, vector(packetBytes)"
34	167802 154 24 957 0.000016618736 0.000054096206 6 28 28 168 4704
vector 35 ExperimentNetwork1.connectRouter1.eth[2].encap encapPk:vector(packetBytes) ETV
attr interpolationmode none
attr source encapPk
attr title "packets encapsulated, vector(packetBytes)"
35	167956 241 25 4126 0.000016618736 0.000131898519 9 28 84 656 51776
vector 36 ExperimentNetwork1.connectRouter1.eth[2].mac packetReceivedFromUpper:vector(packetBytes) ETV
attr interpolationmode none
attr source packetReceivedFromUpper
attr title "packet bytes from higher layer, vector(packetBytes)"
36	168197 248 26 4127 0.000016618736 0.000131898519 9 46 102 818 78308
vector 37 ExperimentNetwork1.connectRouter1.eth[2].mac.queue packetPushed:vector(packetBytes) ETV
attr interpolationmode none
attr title "packet pushed, vector(packetBytes)"
37	168445 248 26 4127 0.000016618736 0.000131898519 9 64 102 842 81020
vector 38 ExperimentNetwork1.connectRouter1.eth[2].mac.queue queueLength:vector ETV
attr interpolationmode sample-hold
attr source "count(packetPushed) - count(packetPopped) - count(packetRemoved) - count(packetDropped)"
attr title "queue length, vector"
38	168693 438 26 4127 0.000016618736 0.000131898519 17 0 2 11 13
vector 39 ExperimentNetwork1.connectRouter1.eth[2].mac.queue packetPopped:vector(packetBytes) ETV
attr interpolationmode none
attr title "packet popped, vector(packetBytes)"
39	169131 220 26 4054 0.000016618736 0.000129999661 8 64 102 740 70616
vector 40 ExperimentNetwork1.connectRouter1.eth[2].mac.queue queueingTime:vector ETV
attr interpolationmode none
attr source queueingTime(packetPopped)
attr title "queueing times, vector"
attr unit s
40	169351 242 26 4054 0.000016618736 0.000129999661 8 0 1.07e-005 3.2941142e-005 2.8012155354416e-010
vector 41 ExperimentNetwork1.bot2[1].eth[0].mac txPk:vector(packetBytes) ETV
attr interpolationmode none
attr source packetSentToLower
attr title "packets transmitted, vector(packetBytes)"
41	169593 103 28 505 0.000018028519 0.000043088519 4 64 64 256 16384
vector 42 ExperimentNetwork1.connectRouter2.eth[1].mac rxPkOk:vector(packetBytes) ETV
attr interpolationmode none
attr source rxPkOk
attr title "packets received OK, vector(packetBytes)"
42	169696 103 29 507 0.000018078519 0.000043138519 4 64 64 256 16384
vector 43 ExperimentNetwork1.connectRouter2.eth[1].mac passedUpPk:vector(packetBytes) ETV
attr interpolationmode none
attr source packetSentToUpper
attr title "packets passed to higher layer, vector(packetBytes)"
43	169799 103 29 507 0.000018078519 0.000043138519 4 64 64 256 16384
vector 44 ExperimentNetwork1.connectRouter2.eth[1].encap decapPk:vector(packetBytes) ETV
attr interpolationmode none
attr source decapPk
attr title "packets decapsulated, vector(packetBytes)"
44	169902 103 30 508 0.000018078519 0.000043138519 4 46 46 184 8464
vector 45 ExperimentNetwork1.connectRouter2.ipv4.arp arpReplySent:vector(packetBytes) ETV
attr source arpReplySent
attr title "ARP replies sent, vector(packetBytes)"
45	170005 152 31 816 0.000018078519 0.00005061349 6 28 28 168 4704
vector 46 ExperimentNetwork1.connectRouter2.eth[1].encap encapPk:vector(packetBytes) ETV
attr interpolationmode none
attr source encapPk
attr title "packets encapsulated, vector(packetBytes)"
46	170157 25 32 32 0.000018078519 0.000018078519 1 28 28 28 784
vector 47 ExperimentNetwork1.connectRouter2.eth[1].mac packetReceivedFromUpper:vector(packetBytes) ETV
attr interpolationmode none
attr source packetReceivedFromUpper
attr title "packet bytes from higher layer, vector(packetBytes)"
47	170182 25 33 33 0.000018078519 0.000018078519 1 46 46 46 2116
vector 48 ExperimentNetwork1.connectRouter2.eth[1].mac.queue packetPushed:vector(packetBytes) ETV
attr interpolationmode none
attr title "packet pushed, vector(packetBytes)"
48	170207 25 33 33 0.000018078519 0.000018078519 1 64 64 64 4096
vector 49 ExperimentNetwork1.connectRouter2.eth[1].mac.queue queueLength:vector ETV
attr interpolationmode sample-hold
attr source "count(packetPushed) - count(packetPopped) - count(packetRemoved) - count(packetDropped)"
attr title "queue length, vector"
49	170232 48 33 33 0.000018078519 0.000018078519 2 0 1 1 1
vector 50 ExperimentNetwork1.connectRouter2.eth[1].mac.queue packetPopped:vector(packetBytes) ETV
attr interpolationmode none
attr title "packet popped, vector(packetBytes)"
50	170280 25 33 33 0.000018078519 0.000018078519 1 64 64 64 4096
vector 51 ExperimentNetwork1.connectRouter2.eth[1].mac.queue queueingTime:vector ETV
attr interpolationmode none
attr source queueingTime(packetPopped)
attr title "queueing times, vector"
attr unit s
51	170305 24 33 33 0.000018078519 0.000018078519 1 0 0 0 0
vector 52 ExperimentNetwork1.bot4[1].eth[0].mac txPk:vector(packetBytes) ETV
attr interpolationmode none
attr source packetSentToLower
attr title "packets transmitted, vector(packetBytes)"
52	170329 25 34 34 0.000018601442 0.000018601442 1 64 64 64 4096
vector 53 ExperimentNetwork1.connectRouter4.eth[1].mac rxPkOk:vector(packetBytes) ETV
attr interpolationmode none
attr source rxPkOk
attr title "packets received OK, vector(packetBytes)"
53	170354 25 35 35 0.000018651442 0.000018651442 1 64 64 64 4096
vector 54 ExperimentNetwork1.connectRouter4.eth[1].mac passedUpPk:vector(packetBytes) ETV
attr interpolationmode none
attr source packetSentToUpper
attr title "packets passed to higher layer, vector(packetBytes)"
54	170379 25 35 35 0.000018651442 0.000018651442 1 64 64 64 4096
vector 55 ExperimentNetwork1.connectRouter4.eth[1].encap decapPk:vector(packetBytes) ETV
attr interpolationmode none
attr source decapPk
attr title "packets decapsulated, vector(packetBytes)"
55	170404 25 36 36 0.000018651442 0.000018651442 1 46 46 46 2116
vector 56 ExperimentNetwork1.connectRouter4.ipv4.arp arpReplySent:vector(packetBytes) ETV
attr source arpReplySent
attr title "ARP replies sent, vector(packetBytes)"
56	170429 155 37 686 0.000018651442 0.000047031167 6 28 28 168 4704
vector 57 ExperimentNetwork1.connectRouter4.eth[1].encap encapPk:vector(packetBytes) ETV
attr interpolationmode none
attr source encapPk
attr title "packets encapsulated, vector(packetBytes)"
57	170584 25 38 38 0.000018651442 0.000018651442 1 28 28 28 784
vector 58 ExperimentNetwork1.connectRouter4.eth[1].mac packetReceivedFromUpper:vector(packetBytes) ETV
attr interpolationmode none
attr source packetReceivedFromUpper
attr title "packet bytes from higher layer, vector(packetBytes)"
58	170609 25 39 39 0.000018651442 0.000018651442 1 46 46 46 2116
vector 59 ExperimentNetwork1.connectRouter4.eth[1].mac.queue packetPushed:vector(packetBytes) ETV
attr interpolationmode none
attr title "packet pushed, vector(packetBytes)"
59	170634 25 39 39 0.000018651442 0.000018651442 1 64 64 64 4096
vector 60 ExperimentNetwork1.connectRouter4.eth[1].mac.queue queueLength:vector ETV
attr interpolationmode sample-hold
attr source "count(packetPushed) - count(packetPopped) - count(packetRemoved) - count(packetDropped)"
attr title "queue length, vector"
60	170659 48 39 39 0.000018651442 0.000018651442 2 0 1 1 1
vector 61 ExperimentNetwork1.connectRouter4.eth[1].mac.queue packetPopped:vector(packetBytes) ETV
attr interpolationmode none
attr title "packet popped, vector(packetBytes)"
61	170707 25 39 39 0.000018651442 0.000018651442 1 64 64 64 4096
vector 62 ExperimentNetwork1.connectRouter4.eth[1].mac.queue queueingTime:vector ETV
attr interpolationmode none
attr source queueingTime(packetPopped)
attr title "queueing times, vector"
attr unit s
62	170732 24 39 39 0.000018651442 0.000018651442 1 0 0 0 0
vector 63 ExperimentNetwork1.bot3[0].ipv4.arp arpRequestSent:vector(packetBytes) ETV
attr source arpRequestSent
attr title "ARP request sent, vector(packetBytes)"
63	170756 25 43 43 0.000020906252 0.000020906252 1 28 28 28 784
vector 64 ExperimentNetwork1.bot3[0].eth[0].encap encapPk:vector(packetBytes) ETV
attr interpolationmode none
attr source encapPk
attr title "packets encapsulated, vector(packetBytes)"
64	170781 1193 44 4092 0.000020906252 0.000130906252 44 28 1500 14888 20305184
vector 65 ExperimentNetwork1.bot3[0].eth[0].mac packetReceivedFromUpper:vector(packetBytes) ETV
attr interpolationmode none
attr source packetReceivedFromUpper
attr title "packet bytes from higher layer, vector(packetBytes)"
65	171974 1193 45 4093 0.000020906252 0.000130906252 44 46 1518 15680 20855408
vector 66 ExperimentNetwork1.bot3[0].eth[0].mac.queue packetPushed:vector(packetBytes) ETV
attr interpolationmode none
attr title "packet pushed, vector(packetBytes)"
66	173167 1193 45 4093 0.000020906252 0.000130906252 44 64 1518 15902 20882276
vector 67 ExperimentNetwork1.bot3[0].eth[0].mac.queue queueLength:vector ETV
attr interpolationmode sample-hold
attr source "count(packetPushed) - count(packetPopped) - count(packetRemoved) - count(packetDropped)"
attr title "queue length, vector"
67	174360 1419 45 4093 0.000020906252 0.000130906252 54 0 34 757 15519
vector 68 ExperimentNetwork1.bot3[0].eth[0].mac.queue packetPopped:vector(packetBytes) ETV
attr interpolationmode none
attr title "packet popped, vector(packetBytes)"
68	175779 266 45 2250 0.000020906252 0.000086286252 10 64 1518 2094 2341188
vector 69 ExperimentNetwork1.bot3[0].eth[0].mac.queue queueingTime:vector ETV
attr interpolationmode none
attr source queueingTime(packetPopped)
attr title "queueing times, vector"
attr unit s
69	176045 341 45 2250 0.000020906252 0.000086286252 10 0 3.7739741e-005 0.000195316571 5.5576241433615e-009
vector 70 ExperimentNetwork1.host2[1].eth[0].mac txPk:vector(packetBytes) ETV
attr interpolationmode none
attr source packetSentToLower
attr title "packets transmitted, vector(packetBytes)"
70	176386 269 46 3949 0.000021374031 0.00012804627 10 64 102 982 97732
vector 71 ExperimentNetwork1.connectRouter2.eth[3].mac rxPkOk:vector(packetBytes) ETV
attr interpolationmode none
attr source rxPkOk
attr title "packets received OK, vector(packetBytes)"
71	176655 269 47 3950 0.000021424031 0.00012809627 10 64 102 982 97732
vector 72 ExperimentNetwork1.connectRouter2.eth[3].mac passedUpPk:vector(packetBytes) ETV
attr interpolationmode none
attr source packetSentToUpper
attr title "packets passed to higher layer, vector(packetBytes)"
72	176924 269 47 3950 0.000021424031 0.00012809627 10 64 102 982 97732
vector 73 ExperimentNetwork1.connectRouter2.eth[3].encap decapPk:vector(packetBytes) ETV
attr interpolationmode none
attr source decapPk
attr title "packets decapsulated, vector(packetBytes)"
73	177193 260 48 3952 0.000021424031 0.00012809627 10 46 84 802 65620
vector 74 ExperimentNetwork1.connectRouter2.eth[3].encap encapPk:vector(packetBytes) ETV
attr interpolationmode none
attr source encapPk
attr title "packets encapsulated, vector(packetBytes)"
74	177453 129 50 3204 0.000021424031 0.00010997627 5 28 84 364 29008
vector 75 ExperimentNetwork1.connectRouter2.eth[3].mac packetReceivedFromUpper:vector(packetBytes) ETV
attr interpolationmode none
attr source packetReceivedFromUpper
attr title "packet bytes from higher layer, vector(packetBytes)"
75	177582 133 51 3205 0.000021424031 0.00010997627 5 46 102 454 43732
vector 76 ExperimentNetwork1.connectRouter2.eth[3].mac.queue packetPushed:vector(packetBytes) ETV
attr interpolationmode none
attr title "packet pushed, vector(packetBytes)"
76	177715 133 51 3205 0.000021424031 0.00010997627 5 64 102 472 45712
vector 77 ExperimentNetwork1.connectRouter2.eth[3].mac.queue queueLength:vector ETV
attr interpolationmode sample-hold
attr source "count(packetPushed) - count(packetPopped) - count(packetRemoved) - count(packetDropped)"
attr title "queue length, vector"
77	177848 248 51 3205 0.000021424031 0.00010997627 10 0 1 5 5
vector 78 ExperimentNetwork1.connectRouter2.eth[3].mac.queue packetPopped:vector(packetBytes) ETV
attr interpolationmode none
attr title "packet popped, vector(packetBytes)"
78	178096 133 51 3205 0.000021424031 0.00010997627 5 64 102 472 45712
vector 79 ExperimentNetwork1.connectRouter2.eth[3].mac.queue queueingTime:vector ETV
attr interpolationmode none
attr source queueingTime(packetPopped)
attr title "queueing times, vector"
attr unit s
79	178229 124 51 3205 0.000021424031 0.00010997627 5 0 0 0 0
vector 80 ExperimentNetwork1.connectRouter1.eth[2].mac txPk:vector(packetBytes) ETV
attr interpolationmode none
attr source packetSentToLower
attr title "packets transmitted, vector(packetBytes)"
80	178353 192 57 4004 0.000022378736 0.000129039661 7 64 102 638 60212
vector 81 ExperimentNetwork1.host1[0].eth[0].mac rxPkOk:vector(packetBytes) ETV
attr interpolationmode none
attr source rxPkOk
attr title "packets received OK, vector(packetBytes)"
81	178545 192 58 4011 0.000022428736 0.000129089661 7 64 102 638 60212
vector 82 ExperimentNetwork1.host1[0].eth[0].mac passedUpPk:vector(packetBytes) ETV
attr interpolationmode none
attr source packetSentToUpper
attr title "packets passed to higher layer, vector(packetBytes)"
82	178737 192 58 4011 0.000022428736 0.000129089661 7 64 102 638 60212
vector 83 ExperimentNetwork1.host1[0].eth[0].encap decapPk:vector(packetBytes) ETV
attr interpolationmode none
attr source decapPk
attr title "packets decapsulated, vector(packetBytes)"
83	178929 187 59 4012 0.000022428736 0.000129089661 7 46 84 512 39512
vector 84 ExperimentNetwork1.connectRouter2.eth[1].mac txPk:vector(packetBytes) ETV
attr interpolationmode none
attr source packetSentToLower
attr title "packets transmitted, vector(packetBytes)"
84	179116 25 70 70 0.000023838519 0.000023838519 1 64 64 64 4096
vector 85 ExperimentNetwork1.bot2[1].eth[0].mac rxPkOk:vector(packetBytes) ETV
attr interpolationmode none
attr source rxPkOk
attr title "packets received OK, vector(packetBytes)"
85	179141 25 71 71 0.000023888519 0.000023888519 1 64 64 64 4096
vector 86 ExperimentNetwork1.bot2[1].eth[0].mac passedUpPk:vector(packetBytes) ETV
attr interpolationmode none
attr source packetSentToUpper
attr title "packets passed to higher layer, vector(packetBytes)"
86	179166 25 71 71 0.000023888519 0.000023888519 1 64 64 64 4096
vector 87 ExperimentNetwork1.bot2[1].eth[0].encap decapPk:vector(packetBytes) ETV
attr interpolationmode none
attr source decapPk
attr title "packets decapsulated, vector(packetBytes)"
87	179191 25 72 72 0.000023888519 0.000023888519 1 46 46 46 2116
vector 88 ExperimentNetwork1.connectRouter4.eth[1].mac txPk:vector(packetBytes) ETV
attr interpolationmode none
attr source packetSentToLower
attr title "packets transmitted, vector(packetBytes)"
88	179216 25 80 80 0.000024411442 0.000024411442 1 64 64 64 4096
vector 89 ExperimentNetwork1.bot4[1].eth[0].mac rxPkOk:vector(packetBytes) ETV
attr interpolationmode none
attr source rxPkOk
attr title "packets received OK, vector(packetBytes)"
89	179241 25 81 81 0.000024461442 0.000024461442 1 64 64 64 4096
vector 90 ExperimentNetwork1.bot4[1].eth[0].mac passedUpPk:vector(packetBytes) ETV
attr interpolationmode none
attr source packetSentToUpper
attr title "packets passed to higher layer, vector(packetBytes)"
90	179266 25 81 81 0.000024461442 0.000024461442 1 64 64 64 4096
vector 91 ExperimentNetwork1.bot4[1].eth[0].encap decapPk:vector(packetBytes) ETV
attr interpolationmode none
attr source decapPk
attr title "packets decapsulated, vector(packetBytes)"
91	179291 25 82 82 0.000024461442 0.000024461442 1 46 46 46 2116
vector 92 ExperimentNetwork1.host1[1].app[0] pingTxSeq:vector ETV
attr interpolationmode none
attr title "ping tx seq, vector"
92	179316 153 94 3805 0.000024729661 0.000124729661 6 0 5 15 55
vector 93 ExperimentNetwork1.host1[1].ipv4.arp arpRequestSent:vector(packetBytes) ETV
attr source arpRequestSent
attr title "ARP request sent, vector(packetBytes)"
93	179469 25 96 96 0.000024729661 0.000024729661 1 28 28 28 784
vector 94 ExperimentNetwork1.host1[1].eth[0].encap encapPk:vector(packetBytes) ETV
attr interpolationmode none
attr source encapPk
attr title "packets encapsulated, vector(packetBytes)"
94	179494 346 97 3979 0.000024729661 0.000128508736 13 28 84 1036 85456
vector 95 ExperimentNetwork1.host1[1].eth[0].mac packetReceivedFromUpper:vector(packetBytes) ETV
attr interpolationmode none
attr source packetReceivedFromUpper
attr title "packet bytes from higher layer, vector(packetBytes)"
95	179840 358 98 3980 0.000024729661 0.000128508736 13 46 102 1270 126964
vector 96 ExperimentNetwork1.host1[1].eth[0].mac.queue packetPushed:vector(packetBytes) ETV
attr interpolationmode none
attr title "packet pushed, vector(packetBytes)"
96	180198 358 98 3980 0.000024729661 0.000128508736 13 64 102 1288 128944
vector 97 ExperimentNetwork1.host1[1].eth[0].mac.queue queueLength:vector ETV
attr interpolationmode sample-hold
attr source "count(packetPushed) - count(packetPopped) - count(packetRemoved) - count(packetDropped)"
attr title "queue length, vector"
97	180556 615 98 3980 0.000024729661 0.000128508736 24 0 2 24 36
vector 98 ExperimentNetwork1.host1[1].eth[0].mac.queue packetPopped:vector(packetBytes) ETV
attr interpolationmode none
attr title "packet popped, vector(packetBytes)"
98	181171 303 98 3799 0.000024729661 0.000124189661 11 64 102 1084 108136
vector 99 ExperimentNetwork1.host1[1].eth[0].mac.queue queueingTime:vector ETV
attr interpolationmode none
attr source queueingTime(packetPopped)
attr title "queueing times, vector"
attr unit s
99	181474 370 98 3799 0.000024729661 0.000124189661 11 0 1.6640925e-005 9.9922775e-005 1.2877648905669e-009
vector 100 ExperimentNetwork1.bot2[0].ipv4.arp arpRequestSent:vector(packetBytes) ETV
attr source arpRequestSent
attr title "ARP request sent, vector(packetBytes)"
100	181844 27 104 104 0.000025375268 0.000025375268 1 28 28 28 784
vector 101 ExperimentNetwork1.bot2[0].eth[0].encap encapPk:vector(packetBytes) ETV
attr interpolationmode none
attr source encapPk
attr title "packets encapsulated, vector(packetBytes)"
101	181871 1214 105 3914 0.000025375268 0.000126946192 43 28 1500 17768 24800384
vector 102 ExperimentNetwork1.bot2[0].eth[0].mac packetReceivedFromUpper:vector(packetBytes) ETV
attr interpolationmode none
attr source packetReceivedFromUpper
attr title "packet bytes from higher layer, vector(packetBytes)"
102	183085 1214 106 3915 0.000025375268 0.000126946192 43 46 1518 18542 25453964
vector 103 ExperimentNetwork1.bot2[0].eth[0].mac.queue packetPushed:vector(packetBytes) ETV
attr interpolationmode none
attr title "packet pushed, vector(packetBytes)"
103	184299 1214 106 3915 0.000025375268 0.000126946192 43 64 1518 18746 25478636
vector 104 ExperimentNetwork1.bot2[0].eth[0].mac.queue queueLength:vector ETV
attr interpolationmode sample-hold
attr source "count(packetPushed) - count(packetPopped) - count(packetRemoved) - count(packetDropped)"
attr title "queue length, vector"
104	185513 1258 106 3915 0.000025375268 0.000126946192 46 0 40 831 22183
vector 105 ExperimentNetwork1.bot2[0].eth[0].mac.queue packetPopped:vector(packetBytes) ETV
attr interpolationmode none
attr title "packet popped, vector(packetBytes)"
105	186771 83 106 562 0.000025375268 0.000043715268 3 64 1518 1646 2312516
vector 106 ExperimentNetwork1.bot2[0].eth[0].mac.queue queueingTime:vector ETV
attr interpolationmode none
attr source queueingTime(packetPopped)
attr title "queueing times, vector"
attr unit s
106	186854 86 106 562 0.000025375268 0.000043715268 3 0 6.72e-006 6.72e-006 4.51584e-011
vector 107 ExperimentNetwork1.bot4[0].ipv4.arp arpRequestSent:vector(packetBytes) ETV
attr source arpRequestSent
attr title "ARP request sent, vector(packetBytes)"
107	186940 27 108 108 0.000025711392 0.000025711392 1 28 28 28 784
vector 108 ExperimentNetwork1.bot4[0].eth[0].encap encapPk:vector(packetBytes) ETV
attr interpolationmode none
attr source encapPk
attr title "packets encapsulated, vector(packetBytes)"
108	186967 1130 109 3924 0.000025711392 0.000127023865 40 28 1500 16188 22547184
vector 109 ExperimentNetwork1.bot4[0].eth[0].mac packetReceivedFromUpper:vector(packetBytes) ETV
attr interpolationmode none
attr source packetReceivedFromUpper
attr title "packet bytes from higher layer, vector(packetBytes)"
109	188097 1130 110 3925 0.000025711392 0.000127023865 40 46 1518 16908 23142912
vector 110 ExperimentNetwork1.bot4[0].eth[0].mac.queue packetPushed:vector(packetBytes) ETV
attr interpolationmode none
attr title "packet pushed, vector(packetBytes)"
110	189227 1130 110 3925 0.000025711392 0.000127023865 40 64 1518 17100 23166120
vector 111 ExperimentNetwork1.bot4[0].eth[0].mac.queue queueLength:vector ETV
attr interpolationmode sample-hold
attr source "count(packetPushed) - count(packetPopped) - count(packetRemoved) - count(packetDropped)"
attr title "queue length, vector"
111	190357 1176 110 3925 0.000025711392 0.000127023865 43 0 37 712 17602
vector 112 ExperimentNetwork1.bot4[0].eth[0].mac.queue packetPopped:vector(packetBytes) ETV
attr interpolationmode none
attr title "packet popped, vector(packetBytes)"
112	191533 83 110 573 0.000025711392 0.000044051392 3 64 1518 1646 2312516
vector 113 ExperimentNetwork1.bot4[0].eth[0].mac.queue queueingTime:vector ETV
attr interpolationmode none
attr source queueingTime(packetPopped)
attr title "queueing times, vector"
attr unit s
113	191616 86 110 573 0.000025711392 0.000044051392 3 0 6.72e-006 6.72e-006 4.51584e-011
vector 114 ExperimentNetwork1.bot3[0].eth[0].mac txPk:vector(packetBytes) ETV
attr interpolationmode none
attr source packetSentToLower
attr title "packets transmitted, vector(packetBytes)"
114	191702 248 111 2191 0.000026666252 0.000085326252 9 64 64 576 36864
vector 115 ExperimentNetwork1.connectRouter3.eth[0].mac rxPkOk:vector(packetBytes) ETV
attr interpolationmode none
attr source rxPkOk
attr title "packets received OK, vector(packetBytes)"
115	191950 248 112 2200 0.000026716252 0.000085376252 9 64 64 576 36864
vector 116 ExperimentNetwork1.connectRouter3.eth[0].mac passedUpPk:vector(packetBytes) ETV
attr interpolationmode none
attr source packetSentToUpper
attr title "packets passed to higher layer, vector(packetBytes)"
116	192198 248 112 2200 0.000026716252 0.000085376252 9 64 64 576 36864
vector 117 ExperimentNetwork1.connectRouter3.eth[0].encap decapPk:vector(packetBytes) ETV
attr interpolationmode none
attr source decapPk
attr title "packets decapsulated, vector(packetBytes)"
117	192446 248 113 2201 0.000026716252 0.000085376252 9 46 46 414 19044
vector 118 ExperimentNetwork1.connectRouter3.ipv4.arp arpReplySent:vector(packetBytes) ETV
attr source arpReplySent
attr title "ARP replies sent, vector(packetBytes)"
118	192694 161 114 995 0.000026716252 0.000054954734 6 28 28 168 4704
vector 119 ExperimentNetwork1.connectRouter3.eth[0].encap encapPk:vector(packetBytes) ETV
attr interpolationmode none
attr source encapPk
attr title "packets encapsulated, vector(packetBytes)"
119	192855 27 115 115 0.000026716252 0.000026716252 1 28 28 28 784
vector 120 ExperimentNetwork1.connectRouter3.eth[0].mac packetReceivedFromUpper:vector(packetBytes) ETV
attr interpolationmode none
attr source packetReceivedFromUpper
attr title "packet bytes from higher layer, vector(packetBytes)"
120	192882 27 116 116 0.000026716252 0.000026716252 1 46 46 46 2116
vector 121 ExperimentNetwork1.connectRouter3.eth[0].mac.queue packetPushed:vector(packetBytes) ETV
attr interpolationmode none
attr title "packet pushed, vector(packetBytes)"
121	192909 27 116 116 0.000026716252 0.000026716252 1 64 64 64 4096
vector 122 ExperimentNetwork1.connectRouter3.eth[0].mac.queue queueLength:vector ETV
attr interpolationmode sample-hold
attr source "count(packetPushed) - count(packetPopped) - count(packetRemoved) - count(packetDropped)"
attr title "queue length, vector"
122	192936 52 116 116 0.000026716252 0.000026716252 2 0 1 1 1
vector 123 ExperimentNetwork1.connectRouter3.eth[0].mac.queue packetPopped:vector(packetBytes) ETV
attr interpolationmode none
attr title "packet popped, vector(packetBytes)"
123	192988 27 116 116 0.000026716252 0.000026716252 1 64 64 64 4096
vector 124 ExperimentNetwork1.connectRouter3.eth[0].mac.queue queueingTime:vector ETV
attr interpolationmode none
attr source queueingTime(packetPopped)
attr title "queueing times, vector"
attr unit s
124	193015 26 116 116 0.000026716252 0.000026716252 1 0 0 0 0
vector 125 ExperimentNetwork1.connectRouter2.eth[3].mac txPk:vector(packetBytes) ETV
attr interpolationmode none
attr source packetSentToLower
attr title "packets transmitted, vector(packetBytes)"
125	193041 139 119 3574 0.000027184031 0.00011877627 5 64 102 472 45712
vector 126 ExperimentNetwork1.host2[1].eth[0].mac rxPkOk:vector(packetBytes) ETV
attr interpolationmode none
attr source rxPkOk
attr title "packets received OK, vector(packetBytes)"
126	193180 139 120 3575 0.000027234031 0.00011882627 5 64 102 472 45712
vector 127 ExperimentNetwork1.host2[1].eth[0].mac passedUpPk:vector(packetBytes) ETV
attr interpolationmode none
attr source packetSentToUpper
attr title "packets passed to higher layer, vector(packetBytes)"
127	193319 139 120 3575 0.000027234031 0.00011882627 5 64 102 472 45712
vector 128 ExperimentNetwork1.host2[1].eth[0].encap decapPk:vector(packetBytes) ETV
attr interpolationmode none
attr source decapPk
attr title "packets decapsulated, vector(packetBytes)"
128	193458 135 121 3576 0.000027234031 0.00011882627 5 46 84 382 30340
vector 129 ExperimentNetwork1.host4[0].app[0] pingTxSeq:vector ETV
attr interpolationmode none
attr title "ping tx seq, vector"
129	193593 160 131 3969 0.000028459175 0.000128459175 6 0 5 15 55
vector 130 ExperimentNetwork1.host4[0].ipv4.arp arpRequestSent:vector(packetBytes) ETV
attr source arpRequestSent
attr title "ARP request sent, vector(packetBytes)"
130	193753 27 133 133 0.000028459175 0.000028459175 1 28 28 28 784
vector 131 ExperimentNetwork1.host4[0].eth[0].encap encapPk:vector(packetBytes) ETV
attr interpolationmode none
attr source encapPk
attr title "packets encapsulated, vector(packetBytes)"
131	193780 361 134 3996 0.000028459175 0.000128715181 13 28 84 948 74544
vector 132 ExperimentNetwork1.host4[0].eth[0].mac packetReceivedFromUpper:vector(packetBytes) ETV
attr interpolationmode none
attr source packetReceivedFromUpper
attr title "packet bytes from higher layer, vector(packetBytes)"
132	194141 371 135 3997 0.000028459175 0.000128715181 13 46 102 1182 112884
vector 133 ExperimentNetwork1.host4[0].eth[0].mac.queue packetPushed:vector(packetBytes) ETV
attr interpolationmode none
attr title "packet pushed, vector(packetBytes)"
133	194512 371 135 3997 0.000028459175 0.000128715181 13 64 102 1212 116328
vector 134 ExperimentNetwork1.host4[0].eth[0].mac.queue queueLength:vector ETV
attr interpolationmode sample-hold
attr source "count(packetPushed) - count(packetPopped) - count(packetRemoved) - count(packetDropped)"
attr title "queue length, vector"
134	194883 642 135 4115 0.000028459175 0.000131755181 24 0 3 20 32
vector 135 ExperimentNetwork1.host4[0].eth[0].mac.queue packetPopped:vector(packetBytes) ETV
attr interpolationmode none
attr title "packet popped, vector(packetBytes)"
135	195525 313 135 4115 0.000028459175 0.000131755181 11 64 102 1008 95520
vector 136 ExperimentNetwork1.host4[0].eth[0].mac.queue queueingTime:vector ETV
attr interpolationmode none
attr source queueingTime(packetPopped)
attr title "queueing times, vector"
attr unit s
136	195838 370 135 4115 0.000028459175 0.000131755181 11 0 1.28e-005 5.5588018e-005 4.9345739417611e-010
vector 137 ExperimentNetwork1.host3[1].app[0] pingTxSeq:vector ETV
attr interpolationmode none
attr title "ping tx seq, vector"
137	196208 160 136 3999 0.000028944322 0.000128944322 6 0 5 15 55
vector 138 ExperimentNetwork1.host3[1].ipv4.arp arpRequestSent:vector(packetBytes) ETV
attr source arpRequestSent
attr title "ARP request sent, vector(packetBytes)"
138	196368 27 138 138 0.000028944322 0.000028944322 1 28 28 28 784
vector 139 ExperimentNetwork1.host3[1].eth[0].encap encapPk:vector(packetBytes) ETV
attr interpolationmode none
attr source encapPk
attr title "packets encapsulated, vector(packetBytes)"
139	196395 305 139 4001 0.000028944322 0.000128944322 11 28 84 868 71344
vector 140 ExperimentNetwork1.host3[1].eth[0].mac packetReceivedFromUpper:vector(packetBytes) ETV
attr interpolationmode none
attr source packetReceivedFromUpper
attr title "packet bytes from higher layer, vector(packetBytes)"
140	196700 315 140 4002 0.000028944322 0.000128944322 11 46 102 1066 106156
vector 141 ExperimentNetwork1.host3[1].eth[0].mac.queue packetPushed:vector(packetBytes) ETV
attr interpolationmode none
attr title "packet pushed, vector(packetBytes)"
141	197015 315 140 4002 0.000028944322 0.000128944322 11 64 102 1084 108136
vector 142 ExperimentNetwork1.host3[1].eth[0].mac.queue queueLength:vector ETV
attr interpolationmode sample-hold
attr source "count(packetPushed) - count(packetPopped) - count(packetRemoved) - count(packetDropped)"
attr title "queue length, vector"
142	197330 561 140 4002 0.000028944322 0.000128944322 21 0 1 11 11
vector 143 ExperimentNetwork1.host3[1].eth[0].mac.queue packetPopped:vector(packetBytes) ETV
attr interpolationmode none
attr title "packet popped, vector(packetBytes)"
143	197891 286 140 3947 0.000028944322 0.000127544322 10 64 102 982 97732
vector 144 ExperimentNetwork1.host3[1].eth[0].mac.queue queueingTime:vector ETV
attr interpolationmode none
attr source queueingTime(packetPopped)
attr title "queueing times, vector"
attr unit s
144	198177 324 140 3947 0.000028944322 0.000127544322 10 0 9.28e-006 2.1078764e-005 1.6687626562923e-010
vector 145 ExperimentNetwork1.bot3[1].ipv4.arp arpRequestSent:vector(packetBytes) ETV
attr source arpRequestSent
attr title "ARP request sent, vector(packetBytes)"
145	198501 27 144 144 0.000029199087 0.000029199087 1 28 28 28 784
vector 146 ExperimentNetwork1.bot3[1].eth[0].encap encapPk:vector(packetBytes) ETV
attr interpolationmode none
attr source encapPk
attr title "packets encapsulated, vector(packetBytes)"
146	198528 1185 145 4112 0.000029199087 0.000131669001 42 28 1500 16268 22550384
vector 147 ExperimentNetwork1.bot3[1].eth[0].mac packetReceivedFromUpper:vector(packetBytes) ETV
attr interpolationmode none
attr source packetReceivedFromUpper
attr title "packet bytes from higher layer, vector(packetBytes)"
147	199713 1185 146 4113 0.000029199087 0.000131669001 42 46 1518 17024 23149640
vector 148 ExperimentNetwork1.bot3[1].eth[0].mac.queue packetPushed:vector(packetBytes) ETV
attr interpolationmode none
attr title "packet pushed, vector(packetBytes)"
148	200898 1185 146 4113 0.000029199087 0.000131669001 42 64 1518 17228 23174312
vector 149 ExperimentNetwork1.bot3[1].eth[0].mac.queue queueLength:vector ETV
attr interpolationmode sample-hold
attr source "count(packetPushed) - count(packetPopped) - count(packetRemoved) - count(packetDropped)"
attr title "queue length, vector"
149	202083 1309 146 4113 0.000029199087 0.000131669001 48 0 36 726 16656
vector 150 ExperimentNetwork1.bot3[1].eth[0].mac.queue packetPopped:vector(packetBytes) ETV
attr interpolationmode none
attr title "packet popped, vector(packetBytes)"
150	203392 166 146 1509 0.000029199087 0.000067699087 6 64 1518 1838 2324804
vector 151 ExperimentNetwork1.bot3[1].eth[0].mac.queue queueingTime:vector ETV
attr interpolationmode none
attr source queueingTime(packetPopped)
attr title "queueing times, vector"
attr unit s
151	203558 200 146 1509 0.000029199087 0.000067699087 6 0 2.6030086e-005 6.6013376e-005 1.2963202035915e-009
vector 152 ExperimentNetwork1.connectRouter2.ipv4.arp arpRequestSent:vector(packetBytes) ETV
attr source arpRequestSent
attr title "ARP request sent, vector(packetBytes)"
152	203758 27 150 150 0.000029698519 0.000029698519 1 28 28 28 784
vector 153 ExperimentNetwork1.connectRouter2.eth[6].encap encapPk:vector(packetBytes) ETV
attr interpolationmode none
attr source encapPk
attr title "packets encapsulated, vector(packetBytes)"
153	203785 545 151 3954 0.000029698519 0.00012809627 20 28 84 1448 113024
vector 154 ExperimentNetwork1.connectRouter2.eth[6].mac packetReceivedFromUpper:vector(packetBytes) ETV
attr interpolationmode none
attr source packetReceivedFromUpper
attr title "packet bytes from higher layer, vector(packetBytes)"
154	204330 560 152 3955 0.000029698519 0.00012809627 20 46 102 1808 171632
vector 155 ExperimentNetwork1.connectRouter2.eth[6].mac.queue packetPushed:vector(packetBytes) ETV
attr interpolationmode none
attr title "packet pushed, vector(packetBytes)"
155	204890 560 152 3955 0.000029698519 0.00012809627 20 64 102 1850 176540
vector 156 ExperimentNetwork1.connectRouter2.eth[6].mac.queue queueLength:vector ETV
attr interpolationmode sample-hold
attr source "count(packetPushed) - count(packetPopped) - count(packetRemoved) - count(packetDropped)"
attr title "queue length, vector"
156	205450 846 152 3955 0.000029698519 0.00012809627 32 0 8 144 812
vector 157 ExperimentNetwork1.connectRouter2.eth[6].mac.queue packetPopped:vector(packetBytes) ETV
attr interpolationmode none
attr title "packet popped, vector(packetBytes)"
157	206296 340 152 3908 0.000029698519 0.000126858519 12 64 102 1034 93308
vector 158 ExperimentNetwork1.connectRouter2.eth[6].mac.queue queueingTime:vector ETV
attr interpolationmode none
attr source queueingTime(packetPopped)
attr title "queueing times, vector"
attr unit s
158	206636 437 152 3908 0.000029698519 0.000126858519 12 0 5.1825029e-005 0.000297048351 1.0439840758473e-008
vector 159 ExperimentNetwork1.host1[1].eth[0].mac txPk:vector(packetBytes) ETV
attr interpolationmode none
attr source packetSentToLower
attr title "packets transmitted, vector(packetBytes)"
159	207073 286 154 3749 0.000030489661 0.000123229661 10 64 102 982 97732
vector 160 ExperimentNetwork1.connectRouter1.eth[3].mac rxPkOk:vector(packetBytes) ETV
attr interpolationmode none
attr source rxPkOk
attr title "packets received OK, vector(packetBytes)"
160	207359 286 155 3750 0.000030539661 0.000123279661 10 64 102 982 97732
vector 161 ExperimentNetwork1.connectRouter1.eth[3].mac passedUpPk:vector(packetBytes) ETV
attr interpolationmode none
attr source packetSentToUpper
attr title "packets passed to higher layer, vector(packetBytes)"
161	207645 286 155 3750 0.000030539661 0.000123279661 10 64 102 982 97732
vector 162 ExperimentNetwork1.connectRouter1.eth[3].encap decapPk:vector(packetBytes) ETV
attr interpolationmode none
attr source decapPk
attr title "packets decapsulated, vector(packetBytes)"
162	207931 277 156 3751 0.000030539661 0.000123279661 10 46 84 802 65620
vector 163 ExperimentNetwork1.connectRouter1.eth[3].encap encapPk:vector(packetBytes) ETV
attr interpolationmode none
attr source encapPk
attr title "packets encapsulated, vector(packetBytes)"
163	208208 193 158 3621 0.000030539661 0.000119658736 7 28 84 532 43120
vector 164 ExperimentNetwork1.connectRouter1.eth[3].mac packetReceivedFromUpper:vector(packetBytes) ETV
attr interpolationmode none
attr source packetReceivedFromUpper
attr title "packet bytes from higher layer, vector(packetBytes)"
164	208401 199 159 3622 0.000030539661 0.000119658736 7 46 102 658 64540
vector 165 ExperimentNetwork1.connectRouter1.eth[3].mac.queue packetPushed:vector(packetBytes) ETV
attr interpolationmode none
attr title "packet pushed, vector(packetBytes)"
165	208600 199 159 3622 0.000030539661 0.000119658736 7 64 102 676 66520
vector 166 ExperimentNetwork1.connectRouter1.eth[3].mac.queue queueLength:vector ETV
attr interpolationmode sample-hold
attr source "count(packetPushed) - count(packetPopped) - count(packetRemoved) - count(packetDropped)"
attr title "queue length, vector"
166	208799 372 159 3622 0.000030539661 0.000119658736 14 0 1 7 7
vector 167 ExperimentNetwork1.connectRouter1.eth[3].mac.queue packetPopped:vector(packetBytes) ETV
attr interpolationmode none
attr title "packet popped, vector(packetBytes)"
167	209171 199 159 3622 0.000030539661 0.000119658736 7 64 102 676 66520
vector 168 ExperimentNetwork1.connectRouter1.eth[3].mac.queue queueingTime:vector ETV
attr interpolationmode none
attr source queueingTime(packetPopped)
attr title "queueing times, vector"
attr unit s
168	209370 210 159 3622 0.000030539661 0.000119658736 7 0 5.980925e-006 1.196185e-005 7.154292771125e-011
vector 169 ExperimentNetwork1.host4[1].app[0] pingTxSeq:vector ETV
attr interpolationmode none
attr title "ping tx seq, vector"
169	209580 160 165 4074 0.000030819099 0.000130819099 6 0 5 15 55
vector 170 ExperimentNetwork1.host4[1].ipv4.arp arpRequestSent:vector(packetBytes) ETV
attr source arpRequestSent
attr title "ARP request sent, vector(packetBytes)"
170	209740 27 167 167 0.000030819099 0.000030819099 1 28 28 28 784
vector 171 ExperimentNetwork1.host4[1].eth[0].encap encapPk:vector(packetBytes) ETV
attr interpolationmode none
attr source encapPk
attr title "packets encapsulated, vector(packetBytes)"
171	209767 333 168 4076 0.000030819099 0.000130819099 12 28 84 952 78400
vector 172 ExperimentNetwork1.host4[1].eth[0].mac packetReceivedFromUpper:vector(packetBytes) ETV
attr interpolationmode none
attr source packetReceivedFromUpper
attr title "packet bytes from higher layer, vector(packetBytes)"
172	210100 344 169 4077 0.000030819099 0.000130819099 12 46 102 1168 116560
vector 173 ExperimentNetwork1.host4[1].eth[0].mac.queue packetPushed:vector(packetBytes) ETV
attr interpolationmode none
attr title "packet pushed, vector(packetBytes)"
173	210444 344 169 4077 0.000030819099 0.000130819099 12 64 102 1186 118540
vector 174 ExperimentNetwork1.host4[1].eth[0].mac.queue queueLength:vector ETV
attr interpolationmode sample-hold
attr source "count(packetPushed) - count(packetPopped) - count(packetRemoved) - count(packetDropped)"
attr title "queue length, vector"
174	210788 615 169 4077 0.000030819099 0.000130819099 23 0 2 14 16
vector 175 ExperimentNetwork1.host4[1].eth[0].mac.queue packetPopped:vector(packetBytes) ETV
attr interpolationmode none
attr title "packet popped, vector(packetBytes)"
175	211403 315 169 4062 0.000030819099 0.000130339099 11 64 102 1084 108136
vector 176 ExperimentNetwork1.host4[1].eth[0].mac.queue queueingTime:vector ETV
attr interpolationmode none
attr source queueingTime(packetPopped)
attr title "queueing times, vector"
attr unit s
176	211718 377 169 4062 0.000030819099 0.000130339099 11 0 1.066e-005 3.5411602e-005 2.5147222422372e-010
vector 177 ExperimentNetwork1.bot2[0].eth[0].mac txPk:vector(packetBytes) ETV
attr interpolationmode none
attr source packetSentToLower
attr title "packets transmitted, vector(packetBytes)"
177	212095 54 172 489 0.000031135268 0.000042755268 2 64 64 128 8192
vector 178 ExperimentNetwork1.connectRouter2.eth[0].mac rxPkOk:vector(packetBytes) ETV
attr interpolationmode none
attr source rxPkOk
attr title "packets received OK, vector(packetBytes)"
178	212149 54 175 490 0.000031185268 0.000042805268 2 64 64 128 8192
vector 179 ExperimentNetwork1.connectRouter2.eth[0].mac passedUpPk:vector(packetBytes) ETV
attr interpolationmode none
attr source packetSentToUpper
attr title "packets passed to higher layer, vector(packetBytes)"
179	212203 54 175 490 0.000031185268 0.000042805268 2 64 64 128 8192
vector 180 ExperimentNetwork1.connectRouter2.eth[0].encap decapPk:vector(packetBytes) ETV
attr interpolationmode none
attr source decapPk
attr title "packets decapsulated, vector(packetBytes)"
180	212257 54 176 491 0.000031185268 0.000042805268 2 46 46 92 4232
vector 181 ExperimentNetwork1.connectRouter2.eth[0].encap encapPk:vector(packetBytes) ETV
attr interpolationmode none
attr source encapPk
attr title "packets encapsulated, vector(packetBytes)"
181	212311 27 178 178 0.000031185268 0.000031185268 1 28 28 28 784
vector 182 ExperimentNetwork1.connectRouter2.eth[0].mac packetReceivedFromUpper:vector(packetBytes) ETV
attr interpolationmode none
attr source packetReceivedFromUpper
attr title "packet bytes from higher layer, vector(packetBytes)"
182	212338 27 179 179 0.000031185268 0.000031185268 1 46 46 46 2116
vector 183 ExperimentNetwork1.connectRouter2.eth[0].mac.queue packetPushed:vector(packetBytes) ETV
attr interpolationmode none
attr title "packet pushed, vector(packetBytes)"
183	212365 27 179 179 0.000031185268 0.000031185268 1 64 64 64 4096
vector 184 ExperimentNetwork1.connectRouter2.eth[0].mac.queue queueLength:vector ETV
attr interpolationmode sample-hold
attr source "count(packetPushed) - count(packetPopped) - count(packetRemoved) - count(packetDropped)"
attr title "queue length, vector"
184	212392 52 179 179 0.000031185268 0.000031185268 2 0 1 1 1
vector 185 ExperimentNetwork1.connectRouter2.eth[0].mac.queue packetPopped:vector(packetBytes) ETV
attr interpolationmode none
attr title "packet popped, vector(packetBytes)"
185	212444 27 179 179 0.000031185268 0.000031185268 1 64 64 64 4096
vector 186 ExperimentNetwork1.connectRouter2.eth[0].mac.queue queueingTime:vector ETV
attr interpolationmode none
attr source queueingTime(packetPopped)
attr title "queueing times, vector"
attr unit s
186	212471 26 179 179 0.000031185268 0.000031185268 1 0 0 0 0
vector 187 ExperimentNetwork1.bot4[0].eth[0].mac txPk:vector(packetBytes) ETV
attr interpolationmode none
attr source packetSentToLower
attr title "packets transmitted, vector(packetBytes)"
187	212497 54 187 506 0.000031471392 0.000043091392 2 64 64 128 8192
vector 188 ExperimentNetwork1.connectRouter4.eth[0].mac rxPkOk:vector(packetBytes) ETV
attr interpolationmode none
attr source rxPkOk
attr title "packets received OK, vector(packetBytes)"
188	212551 54 188 512 0.000031521392 0.000043141392 2 64 64 128 8192
vector 189 ExperimentNetwork1.connectRouter4.eth[0].mac passedUpPk:vector(packetBytes) ETV
attr interpolationmode none
attr source packetSentToUpper
attr title "packets passed to higher layer, vector(packetBytes)"
189	212605 54 188 512 0.000031521392 0.000043141392 2 64 64 128 8192
vector 190 ExperimentNetwork1.connectRouter4.eth[0].encap decapPk:vector(packetBytes) ETV
attr interpolationmode none
attr source decapPk
attr title "packets decapsulated, vector(packetBytes)"
190	212659 54 189 513 0.000031521392 0.000043141392 2 46 46 92 4232
vector 191 ExperimentNetwork1.connectRouter4.eth[0].encap encapPk:vector(packetBytes) ETV
attr interpolationmode none
attr source encapPk
attr title "packets encapsulated, vector(packetBytes)"
191	212713 27 191 191 0.000031521392 0.000031521392 1 28 28 28 784
vector 192 ExperimentNetwork1.connectRouter4.eth[0].mac packetReceivedFromUpper:vector(packetBytes) ETV
attr interpolationmode none
attr source packetReceivedFromUpper
attr title "packet bytes from higher layer, vector(packetBytes)"
192	212740 27 192 192 0.000031521392 0.000031521392 1 46 46 46 2116
vector 193 ExperimentNetwork1.connectRouter4.eth[0].mac.queue packetPushed:vector(packetBytes) ETV
attr interpolationmode none
attr title "packet pushed, vector(packetBytes)"
193	212767 27 192 192 0.000031521392 0.000031521392 1 64 64 64 4096
vector 194 ExperimentNetwork1.connectRouter4.eth[0].mac.queue queueLength:vector ETV
attr interpolationmode sample-hold
attr source "count(packetPushed) - count(packetPopped) - count(packetRemoved) - count(packetDropped)"
attr title "queue length, vector"
194	212794 52 192 192 0.000031521392 0.000031521392 2 0 1 1 1
vector 195 ExperimentNetwork1.connectRouter4.eth[0].mac.queue packetPopped:vector(packetBytes) ETV
attr interpolationmode none
attr title "packet popped, vector(packetBytes)"
195	212846 27 192 192 0.000031521392 0.000031521392 1 64 64 64 4096
vector 196 ExperimentNetwork1.connectRouter4.eth[0].mac.queue queueingTime:vector ETV
attr interpolationmode none
attr source queueingTime(packetPopped)
attr title "queueing times, vector"
attr unit s
196	212873 26 192 192 0.000031521392 0.000031521392 1 0 0 0 0
vector 197 ExperimentNetwork1.bot1[1].ipv4.arp arpRequestSent:vector(packetBytes) ETV
attr source arpRequestSent
attr title "ARP request sent, vector(packetBytes)"
197	212899 27 194 194 0.000031795327 0.000031795327 1 28 28 28 784
vector 198 ExperimentNetwork1.bot1[1].eth[0].encap encapPk:vector(packetBytes) ETV
attr interpolationmode none
attr source encapPk
attr title "packets encapsulated, vector(packetBytes)"
198	212926 1129 195 4118 0.000031795327 0.000131795327 40 28 1500 16188 22547184
vector 199 ExperimentNetwork1.bot1[1].eth[0].mac packetReceivedFromUpper:vector(packetBytes) ETV
attr interpolationmode none
attr source packetReceivedFromUpper
attr title "packet bytes from higher layer, vector(packetBytes)"
199	214055 1129 196 4119 0.000031795327 0.000131795327 40 46 1518 16908 23142912
vector 200 ExperimentNetwork1.bot1[1].eth[0].mac.queue packetPushed:vector(packetBytes) ETV
attr interpolationmode none
attr title "packet pushed, vector(packetBytes)"
200	215184 1129 196 4119 0.000031795327 0.000131795327 40 64 1518 17100 23166120
vector 201 ExperimentNetwork1.bot1[1].eth[0].mac.queue queueLength:vector ETV
attr interpolationmode sample-hold
attr source "count(packetPushed) - count(packetPopped) - count(packetRemoved) - count(packetDropped)"
attr title "queue length, vector"
201	216313 1175 196 4119 0.000031795327 0.000131795327 43 0 37 714 17618
vector 202 ExperimentNetwork1.bot1[1].eth[0].mac.queue packetPopped:vector(packetBytes) ETV
attr interpolationmode none
attr title "packet popped, vector(packetBytes)"
202	217488 83 196 805 0.000031795327 0.000050135327 3 64 1518 1646 2312516
vector 203 ExperimentNetwork1.bot1[1].eth[0].mac.queue queueingTime:vector ETV
attr interpolationmode none
attr source queueingTime(packetPopped)
attr title "queueing times, vector"
attr unit s
203	217571 86 196 805 0.000031795327 0.000050135327 3 0 6.72e-006 6.72e-006 4.51584e-011
vector 204 ExperimentNetwork1.bot1[0].ipv4.arp arpRequestSent:vector(packetBytes) ETV
attr source arpRequestSent
attr title "ARP request sent, vector(packetBytes)"
204	217657 26 202 202 0.00003195254 0.00003195254 1 28 28 28 784
vector 205 ExperimentNetwork1.bot1[0].eth[0].encap encapPk:vector(packetBytes) ETV
attr interpolationmode none
attr source encapPk
attr title "packets encapsulated, vector(packetBytes)"
205	217683 1136 203 4134 0.00003195254 0.00013195254 41 28 1500 17688 24797184
vector 206 ExperimentNetwork1.bot1[0].eth[0].mac packetReceivedFromUpper:vector(packetBytes) ETV
attr interpolationmode none
attr source packetReceivedFromUpper
attr title "packet bytes from higher layer, vector(packetBytes)"
206	218819 1136 204 4135 0.00003195254 0.00013195254 41 46 1518 18426 25447236
vector 207 ExperimentNetwork1.bot1[0].eth[0].mac.queue packetPushed:vector(packetBytes) ETV
attr interpolationmode none
attr title "packet pushed, vector(packetBytes)"
207	219955 1136 204 4135 0.00003195254 0.00013195254 41 64 1518 18618 25470444
vector 208 ExperimentNetwork1.bot1[0].eth[0].mac.queue queueLength:vector ETV
attr interpolationmode sample-hold
attr source "count(packetPushed) - count(packetPopped) - count(packetRemoved) - count(packetDropped)"
attr title "queue length, vector"
208	221091 1153 204 4135 0.00003195254 0.00013195254 43 0 39 782 20542
vector 209 ExperimentNetwork1.bot1[0].eth[0].mac.queue packetPopped:vector(packetBytes) ETV
attr interpolationmode none
attr title "packet popped, vector(packetBytes)"
209	222244 54 204 554 0.00003195254 0.00004357254 2 64 1518 1582 2308420
vector 210 ExperimentNetwork1.bot1[0].eth[0].mac.queue queueingTime:vector ETV
attr interpolationmode none
attr source queueingTime(packetPopped)
attr title "queueing times, vector"
attr unit s
210	222298 50 204 554 0.00003195254 0.00004357254 2 0 0 0 0
vector 211 ExperimentNetwork1.connectRouter3.eth[0].mac txPk:vector(packetBytes) ETV
attr interpolationmode none
attr source packetSentToLower
attr title "packets transmitted, vector(packetBytes)"
211	222348 27 212 212 0.000032476252 0.000032476252 1 64 64 64 4096
vector 212 ExperimentNetwork1.bot3[0].eth[0].mac rxPkOk:vector(packetBytes) ETV
attr interpolationmode none
attr source rxPkOk
attr title "packets received OK, vector(packetBytes)"
212	222375 27 213 213 0.000032526252 0.000032526252 1 64 64 64 4096
vector 213 ExperimentNetwork1.bot3[0].eth[0].mac passedUpPk:vector(packetBytes) ETV
attr interpolationmode none
attr source packetSentToUpper
attr title "packets passed to higher layer, vector(packetBytes)"
213	222402 27 213 213 0.000032526252 0.000032526252 1 64 64 64 4096
vector 214 ExperimentNetwork1.bot3[0].eth[0].encap decapPk:vector(packetBytes) ETV
attr interpolationmode none
attr source decapPk
attr title "packets decapsulated, vector(packetBytes)"
214	222429 27 214 214 0.000032526252 0.000032526252 1 46 46 46 2116
vector 215 ExperimentNetwork1.host4[0].eth[0].mac txPk:vector(packetBytes) ETV
attr interpolationmode none
attr source packetSentToLower
attr title "packets transmitted, vector(packetBytes)"
215	222456 286 243 4064 0.000034219175 0.000130795181 10 64 102 944 91424
vector 216 ExperimentNetwork1.connectRouter4.eth[2].mac rxPkOk:vector(packetBytes) ETV
attr interpolationmode none
attr source rxPkOk
attr title "packets received OK, vector(packetBytes)"
216	222742 286 244 4079 0.000034269175 0.000130845181 10 64 102 944 91424
vector 217 ExperimentNetwork1.connectRouter4.eth[2].mac passedUpPk:vector(packetBytes) ETV
attr interpolationmode none
attr source packetSentToUpper
attr title "packets passed to higher layer, vector(packetBytes)"
217	223028 286 244 4079 0.000034269175 0.000130845181 10 64 102 944 91424
vector 218 ExperimentNetwork1.connectRouter4.eth[2].encap decapPk:vector(packetBytes) ETV
attr interpolationmode none
attr source decapPk
attr title "packets decapsulated, vector(packetBytes)"
218	223314 278 245 4081 0.000034269175 0.000130845181 10 46 84 764 60680
vector 219 ExperimentNetwork1.connectRouter4.eth[2].encap encapPk:vector(packetBytes) ETV
attr interpolationmode none
attr source encapPk
attr title "packets encapsulated, vector(packetBytes)"
219	223592 391 247 4040 0.000034269175 0.000129429099 14 28 84 944 70688
vector 220 ExperimentNetwork1.connectRouter4.eth[2].mac packetReceivedFromUpper:vector(packetBytes) ETV
attr interpolationmode none
attr source packetReceivedFromUpper
attr title "packet bytes from higher layer, vector(packetBytes)"
220	223983 400 248 4041 0.000034269175 0.000129429099 14 46 102 1196 109208
vector 221 ExperimentNetwork1.connectRouter4.eth[2].mac.queue packetPushed:vector(packetBytes) ETV
attr interpolationmode none
attr title "packet pushed, vector(packetBytes)"
221	224383 400 248 4041 0.000034269175 0.000129429099 14 64 102 1238 114116
vector 222 ExperimentNetwork1.connectRouter4.eth[2].mac.queue queueLength:vector ETV
attr interpolationmode sample-hold
attr source "count(packetPushed) - count(packetPopped) - count(packetRemoved) - count(packetDropped)"
attr title "queue length, vector"
222	224783 646 248 4042 0.000034269175 0.000129625181 24 0 5 46 132
vector 223 ExperimentNetwork1.connectRouter4.eth[2].mac.queue packetPopped:vector(packetBytes) ETV
attr interpolationmode none
attr title "packet popped, vector(packetBytes)"
223	225429 286 248 4042 0.000034269175 0.000129625181 10 64 102 906 85116
vector 224 ExperimentNetwork1.connectRouter4.eth[2].mac.queue queueingTime:vector ETV
attr interpolationmode none
attr source queueingTime(packetPopped)
attr title "queueing times, vector"
attr unit s
224	225715 350 248 4042 0.000034269175 0.000129625181 10 0 2.1408929e-005 9.6746104e-005 1.5595890772663e-009
vector 225 ExperimentNetwork1.host3[1].eth[0].mac txPk:vector(packetBytes) ETV
attr interpolationmode none
attr source packetSentToLower
attr title "packets transmitted, vector(packetBytes)"
225	226065 258 249 3901 0.000034704322 0.000126544322 9 64 102 880 87328
vector 226 ExperimentNetwork1.connectRouter3.eth[3].mac rxPkOk:vector(packetBytes) ETV
attr interpolationmode none
attr source rxPkOk
attr title "packets received OK, vector(packetBytes)"
226	226323 258 250 3902 0.000034754322 0.000126594322 9 64 102 880 87328
vector 227 ExperimentNetwork1.connectRouter3.eth[3].mac passedUpPk:vector(packetBytes) ETV
attr interpolationmode none
attr source packetSentToUpper
attr title "packets passed to higher layer, vector(packetBytes)"
227	226581 258 250 3902 0.000034754322 0.000126594322 9 64 102 880 87328
vector 228 ExperimentNetwork1.connectRouter3.eth[3].encap decapPk:vector(packetBytes) ETV
attr interpolationmode none
attr source decapPk
attr title "packets decapsulated, vector(packetBytes)"
228	226839 250 251 3904 0.000034754322 0.000126594322 9 46 84 718 58564
vector 229 ExperimentNetwork1.connectRouter3.eth[3].encap encapPk:vector(packetBytes) ETV
attr interpolationmode none
attr source encapPk
attr title "packets encapsulated, vector(packetBytes)"
229	227089 139 253 3572 0.000034754322 0.000118694322 5 28 84 364 29008
vector 230 ExperimentNetwork1.connectRouter3.eth[3].mac packetReceivedFromUpper:vector(packetBytes) ETV
attr interpolationmode none
attr source packetReceivedFromUpper
attr title "packet bytes from higher layer, vector(packetBytes)"
230	227228 143 254 3573 0.000034754322 0.000118694322 5 46 102 454 43732
vector 231 ExperimentNetwork1.connectRouter3.eth[3].mac.queue packetPushed:vector(packetBytes) ETV
attr interpolationmode none
attr title "packet pushed, vector(packetBytes)"
231	227371 143 254 3573 0.000034754322 0.000118694322 5 64 102 472 45712
vector 232 ExperimentNetwork1.connectRouter3.eth[3].mac.queue queueLength:vector ETV
attr interpolationmode sample-hold
attr source "count(packetPushed) - count(packetPopped) - count(packetRemoved) - count(packetDropped)"
attr title "queue length, vector"
232	227514 268 254 3573 0.000034754322 0.000118694322 10 0 1 5 5
vector 233 ExperimentNetwork1.connectRouter3.eth[3].mac.queue packetPopped:vector(packetBytes) ETV
attr interpolationmode none
attr title "packet popped, vector(packetBytes)"
233	227782 143 254 3573 0.000034754322 0.000118694322 5 64 102 472 45712
vector 234 ExperimentNetwork1.connectRouter3.eth[3].mac.queue queueingTime:vector ETV
attr interpolationmode none
attr source queueingTime(packetPopped)
attr title "queueing times, vector"
attr unit s
234	227925 134 254 3573 0.000034754322 0.000118694322 5 0 0 0 0
vector 235 ExperimentNetwork1.bot3[1].eth[0].mac txPk:vector(packetBytes) ETV
attr interpolationmode none
attr source packetSentToLower
attr title "packets transmitted, vector(packetBytes)"
235	228059 137 257 1466 0.000034959087 0.000066739087 5 64 64 320 20480
vector 236 ExperimentNetwork1.connectRouter3.eth[1].mac rxPkOk:vector(packetBytes) ETV
attr interpolationmode none
attr source rxPkOk
attr title "packets received OK, vector(packetBytes)"
236	228196 137 258 1467 0.000035009087 0.000066789087 5 64 64 320 20480
vector 237 ExperimentNetwork1.connectRouter3.eth[1].mac passedUpPk:vector(packetBytes) ETV
attr interpolationmode none
attr source packetSentToUpper
attr title "packets passed to higher layer, vector(packetBytes)"
237	228333 137 258 1467 0.000035009087 0.000066789087 5 64 64 320 20480
vector 238 ExperimentNetwork1.connectRouter3.eth[1].encap decapPk:vector(packetBytes) ETV
attr interpolationmode none
attr source decapPk
attr title "packets decapsulated, vector(packetBytes)"
238	228470 137 259 1468 0.000035009087 0.000066789087 5 46 46 230 10580
vector 239 ExperimentNetwork1.connectRouter3.eth[1].encap encapPk:vector(packetBytes) ETV
attr interpolationmode none
attr source encapPk
attr title "packets encapsulated, vector(packetBytes)"
239	228607 27 261 261 0.000035009087 0.000035009087 1 28 28 28 784
vector 240 ExperimentNetwork1.connectRouter3.eth[1].mac packetReceivedFromUpper:vector(packetBytes) ETV
attr interpolationmode none
attr source packetReceivedFromUpper
attr title "packet bytes from higher layer, vector(packetBytes)"
240	228634 27 262 262 0.000035009087 0.000035009087 1 46 46 46 2116
vector 241 ExperimentNetwork1.connectRouter3.eth[1].mac.queue packetPushed:vector(packetBytes) ETV
attr interpolationmode none
attr title "packet pushed, vector(packetBytes)"
241	228661 27 262 262 0.000035009087 0.000035009087 1 64 64 64 4096
vector 242 ExperimentNetwork1.connectRouter3.eth[1].mac.queue queueLength:vector ETV
attr interpolationmode sample-hold
attr source "count(packetPushed) - count(packetPopped) - count(packetRemoved) - count(packetDropped)"
attr title "queue length, vector"
242	228688 52 262 262 0.000035009087 0.000035009087 2 0 1 1 1
vector 243 ExperimentNetwork1.connectRouter3.eth[1].mac.queue packetPopped:vector(packetBytes) ETV
attr interpolationmode none
attr title "packet popped, vector(packetBytes)"
243	228740 27 262 262 0.000035009087 0.000035009087 1 64 64 64 4096
vector 244 ExperimentNetwork1.connectRouter3.eth[1].mac.queue queueingTime:vector ETV
attr interpolationmode none
attr source queueingTime(packetPopped)
attr title "queueing times, vector"
attr unit s
244	228767 26 262 262 0.000035009087 0.000035009087 1 0 0 0 0
vector 245 ExperimentNetwork1.connectRouter2.eth[6].mac txPk:vector(packetBytes) ETV
attr interpolationmode none
attr source packetSentToLower
attr title "packets transmitted, vector(packetBytes)"
245	228793 312 270 3862 0.000035458519 0.000125898519 11 64 102 932 82904
vector 246 ExperimentNetwork1.collectRouter2.eth[1].mac rxPkOk:vector(packetBytes) ETV
attr interpolationmode none
attr source rxPkOk
attr title "packets received OK, vector(packetBytes)"
246	229105 312 272 3870 0.000035558519 0.000125998519 11 64 102 932 82904
vector 247 ExperimentNetwork1.collectRouter2.eth[1].mac passedUpPk:vector(packetBytes) ETV
attr interpolationmode none
attr source packetSentToUpper
attr title "packets passed to higher layer, vector(packetBytes)"
247	229417 312 272 3870 0.000035558519 0.000125998519 11 64 102 932 82904
vector 248 ExperimentNetwork1.collectRouter2.eth[1].encap decapPk:vector(packetBytes) ETV
attr interpolationmode none
attr source decapPk
attr title "packets decapsulated, vector(packetBytes)"
248	229729 306 273 3871 0.000035558519 0.000125998519 11 46 84 734 52916
vector 249 ExperimentNetwork1.collectRouter2.ipv4.arp arpReplySent:vector(packetBytes) ETV
attr source arpReplySent
attr title "ARP replies sent, vector(packetBytes)"
249	230035 27 274 274 0.000035558519 0.000035558519 1 28 28 28 784
vector 250 ExperimentNetwork1.collectRouter2.eth[1].encap encapPk:vector(packetBytes) ETV
attr interpolationmode none
attr source encapPk
attr title "packets encapsulated, vector(packetBytes)"
250	230062 83 275 3269 0.000035558519 0.000111619661 3 28 84 196 14896
vector 251 ExperimentNetwork1.collectRouter2.eth[1].mac packetReceivedFromUpper:vector(packetBytes) ETV
attr interpolationmode none
attr source packetReceivedFromUpper
attr title "packet bytes from higher layer, vector(packetBytes)"
251	230145 85 276 3270 0.000035558519 0.000111619661 3 46 102 250 22924
vector 252 ExperimentNetwork1.collectRouter2.eth[1].mac.queue packetPushed:vector(packetBytes) ETV
attr interpolationmode none
attr title "packet pushed, vector(packetBytes)"
252	230230 85 276 3270 0.000035558519 0.000111619661 3 64 102 268 24904
vector 253 ExperimentNetwork1.collectRouter2.eth[1].mac.queue queueLength:vector ETV
attr interpolationmode sample-hold
attr source "count(packetPushed) - count(packetPopped) - count(packetRemoved) - count(packetDropped)"
attr title "queue length, vector"
253	230315 160 276 3270 0.000035558519 0.000111619661 6 0 1 3 3
vector 254 ExperimentNetwork1.collectRouter2.eth[1].mac.queue packetPopped:vector(packetBytes) ETV
attr interpolationmode none
attr title "packet popped, vector(packetBytes)"
254	230475 85 276 3270 0.000035558519 0.000111619661 3 64 102 268 24904
vector 255 ExperimentNetwork1.collectRouter2.eth[1].mac.queue queueingTime:vector ETV
attr interpolationmode none
attr source queueingTime(packetPopped)
attr title "queueing times, vector"
attr unit s
255	230560 80 276 3270 0.000035558519 0.000111619661 3 0 0 0 0
vector 256 ExperimentNetwork1.connectRouter1.eth[3].mac txPk:vector(packetBytes) ETV
attr interpolationmode none
attr source packetSentToLower
attr title "packets transmitted, vector(packetBytes)"
256	230640 200 296 3968 0.000036299661 0.000128458736 7 64 102 676 66520
vector 257 ExperimentNetwork1.host1[1].eth[0].mac rxPkOk:vector(packetBytes) ETV
attr interpolationmode none
attr source rxPkOk
attr title "packets received OK, vector(packetBytes)"
257	230840 200 297 3973 0.000036349661 0.000128508736 7 64 102 676 66520
vector 258 ExperimentNetwork1.host1[1].eth[0].mac passedUpPk:vector(packetBytes) ETV
attr interpolationmode none
attr source packetSentToUpper
attr title "packets passed to higher layer, vector(packetBytes)"
258	231040 200 297 3973 0.000036349661 0.000128508736 7 64 102 676 66520
vector 259 ExperimentNetwork1.host1[1].eth[0].encap decapPk:vector(packetBytes) ETV
attr interpolationmode none
attr source decapPk
attr title "packets decapsulated, vector(packetBytes)"
259	231240 194 298 3974 0.000036349661 0.000128508736 7 46 84 550 44452
vector 260 ExperimentNetwork1.host4[1].eth[0].mac txPk:vector(packetBytes) ETV
attr interpolationmode none
attr source packetSentToLower
attr title "packets transmitted, vector(packetBytes)"
260	231434 287 307 4030 0.000036579099 0.000129379099 10 64 102 982 97732
vector 261 ExperimentNetwork1.connectRouter4.eth[3].mac rxPkOk:vector(packetBytes) ETV
attr interpolationmode none
attr source rxPkOk
attr title "packets received OK, vector(packetBytes)"
261	231721 287 308 4037 0.000036629099 0.000129429099 10 64 102 982 97732
vector 262 ExperimentNetwork1.connectRouter4.eth[3].mac passedUpPk:vector(packetBytes) ETV
attr interpolationmode none
attr source packetSentToUpper
attr title "packets passed to higher layer, vector(packetBytes)"
262	232008 287 308 4037 0.000036629099 0.000129429099 10 64 102 982 97732
vector 263 ExperimentNetwork1.connectRouter4.eth[3].encap decapPk:vector(packetBytes) ETV
attr interpolationmode none
attr source decapPk
attr title "packets decapsulated, vector(packetBytes)"
263	232295 278 309 4038 0.000036629099 0.000129429099 10 46 84 802 65620
vector 264 ExperimentNetwork1.connectRouter4.eth[3].encap encapPk:vector(packetBytes) ETV
attr interpolationmode none
attr source encapPk
attr title "packets encapsulated, vector(packetBytes)"
264	232573 166 311 3650 0.000036629099 0.000121085181 6 28 84 448 36064
vector 265 ExperimentNetwork1.connectRouter4.eth[3].mac packetReceivedFromUpper:vector(packetBytes) ETV
attr interpolationmode none
attr source packetReceivedFromUpper
attr title "packet bytes from higher layer, vector(packetBytes)"
265	232739 171 312 3651 0.000036629099 0.000121085181 6 46 102 556 54136
vector 266 ExperimentNetwork1.connectRouter4.eth[3].mac.queue packetPushed:vector(packetBytes) ETV
attr interpolationmode none
attr title "packet pushed, vector(packetBytes)"
266	232910 171 312 3651 0.000036629099 0.000121085181 6 64 102 574 56116
vector 267 ExperimentNetwork1.connectRouter4.eth[3].mac.queue queueLength:vector ETV
attr interpolationmode sample-hold
attr source "count(packetPushed) - count(packetPopped) - count(packetRemoved) - count(packetDropped)"
attr title "queue length, vector"
267	233081 320 312 3651 0.000036629099 0.000121085181 12 0 1 6 6
vector 268 ExperimentNetwork1.connectRouter4.eth[3].mac.queue packetPopped:vector(packetBytes) ETV
attr interpolationmode none
attr title "packet popped, vector(packetBytes)"
268	233401 171 312 3651 0.000036629099 0.000121085181 6 64 102 574 56116
vector 269 ExperimentNetwork1.connectRouter4.eth[3].mac.queue queueingTime:vector ETV
attr interpolationmode none
attr source queueingTime(packetPopped)
attr title "queueing times, vector"
attr unit s
269	233572 160 312 3651 0.000036629099 0.000121085181 6 0 0 0 0
vector 270 ExperimentNetwork1.connectRouter2.eth[0].mac txPk:vector(packetBytes) ETV
attr interpolationmode none
attr source packetSentToLower
attr title "packets transmitted, vector(packetBytes)"
270	233732 27 313 313 0.000036945268 0.000036945268 1 64 64 64 4096
vector 271 ExperimentNetwork1.bot2[0].eth[0].mac rxPkOk:vector(packetBytes) ETV
attr interpolationmode none
attr source rxPkOk
attr title "packets received OK, vector(packetBytes)"
271	233759 27 317 317 0.000036995268 0.000036995268 1 64 64 64 4096
vector 272 ExperimentNetwork1.bot2[0].eth[0].mac passedUpPk:vector(packetBytes) ETV
attr interpolationmode none
attr source packetSentToUpper
attr title "packets passed to higher layer, vector(packetBytes)"
272	233786 27 317 317 0.000036995268 0.000036995268 1 64 64 64 4096
vector 273 ExperimentNetwork1.bot2[0].eth[0].encap decapPk:vector(packetBytes) ETV
attr interpolationmode none
attr source decapPk
attr title "packets decapsulated, vector(packetBytes)"
273	233813 27 318 318 0.000036995268 0.000036995268 1 46 46 46 2116
vector 274 ExperimentNetwork1.host4[3].app[0] pingTxSeq:vector ETV
attr interpolationmode none
attr title "ping tx seq, vector"
274	233840 134 332 3526 0.000037155181 0.000117155181 5 0 4 10 30
vector 275 ExperimentNetwork1.host4[3].ipv4.arp arpRequestSent:vector(packetBytes) ETV
attr source arpRequestSent
attr title "ARP request sent, vector(packetBytes)"
275	233974 27 334 334 0.000037155181 0.000037155181 1 28 28 28 784
vector 276 ExperimentNetwork1.host4[3].eth[0].encap encapPk:vector(packetBytes) ETV
attr interpolationmode none
attr source encapPk
attr title "packets encapsulated, vector(packetBytes)"
276	234001 166 335 3528 0.000037155181 0.000117155181 6 28 84 448 36064
vector 277 ExperimentNetwork1.host4[3].eth[0].mac packetReceivedFromUpper:vector(packetBytes) ETV
attr interpolationmode none
attr source packetReceivedFromUpper
attr title "packet bytes from higher layer, vector(packetBytes)"
277	234167 171 336 3529 0.000037155181 0.000117155181 6 46 102 556 54136
vector 278 ExperimentNetwork1.host4[3].eth[0].mac.queue packetPushed:vector(packetBytes) ETV
attr interpolationmode none
attr title "packet pushed, vector(packetBytes)"
278	234338 171 336 3529 0.000037155181 0.000117155181 6 64 102 574 56116
vector 279 ExperimentNetwork1.host4[3].eth[0].mac.queue queueLength:vector ETV
attr interpolationmode sample-hold
attr source "count(packetPushed) - count(packetPopped) - count(packetRemoved) - count(packetDropped)"
attr title "queue length, vector"
279	234509 320 336 3529 0.000037155181 0.000117155181 12 0 1 6 6
vector 280 ExperimentNetwork1.host4[3].eth[0].mac.queue packetPopped:vector(packetBytes) ETV
attr interpolationmode none
attr title "packet popped, vector(packetBytes)"
280	234829 171 336 3529 0.000037155181 0.000117155181 6 64 102 574 56116
vector 281 ExperimentNetwork1.host4[3].eth[0].mac.queue queueingTime:vector ETV
attr interpolationmode none
attr source queueingTime(packetPopped)
attr title "queueing times, vector"
attr unit s
281	235000 168 336 3529 0.000037155181 0.000117155181 6 0 1.38e-006 1.38e-006 1.9044e-012
vector 282 ExperimentNetwork1.connectRouter4.eth[0].mac txPk:vector(packetBytes) ETV
attr interpolationmode none
attr source packetSentToLower
attr title "packets transmitted, vector(packetBytes)"
282	235168 27 338 338 0.000037281392 0.000037281392 1 64 64 64 4096
[...]
vector 677 ExperimentNetwork1.coreRouter2.eth[2].encap encapPk:vector(packetBytes) ETV
attr interpolationmode none
attr source encapPk
attr title "packets encapsulated, vector(packetBytes)"
677	295363 140 1462 3501 0.000066531392 0.000116706252 5 28 40 188 7184
vector 678 ExperimentNetwork1.coreRouter2.eth[2].mac packetReceivedFromUpper:vector(packetBytes) ETV
attr interpolationmode none
attr source packetReceivedFromUpper
attr title "packet bytes from higher layer, vector(packetBytes)"
678	295503 140 1463 3502 0.000066531392 0.000116706252 5 46 58 278 15572
vector 679 ExperimentNetwork1.coreRouter2.eth[2].mac.queue packetPushed:vector(packetBytes) ETV
attr interpolationmode none
attr title "packet pushed, vector(packetBytes)"
679	295643 140 1463 3502 0.000066531392 0.000116706252 5 64 64 320 20480
vector 680 ExperimentNetwork1.coreRouter2.eth[2].mac.queue queueLength:vector ETV
attr interpolationmode sample-hold
attr source "count(packetPushed) - count(packetPopped) - count(packetRemoved) - count(packetDropped)"
attr title "queue length, vector"
680	295783 270 1463 3502 0.000066531392 0.000116706252 10 0 1 5 5
vector 681 ExperimentNetwork1.coreRouter2.eth[2].mac.queue packetPopped:vector(packetBytes) ETV
attr interpolationmode none
attr title "packet popped, vector(packetBytes)"
681	296053 140 1463 3502 0.000066531392 0.000116706252 5 64 64 320 20480
vector 682 ExperimentNetwork1.coreRouter2.eth[2].mac.queue queueingTime:vector ETV
attr interpolationmode none
attr source queueingTime(packetPopped)
attr title "queueing times, vector"
attr unit s
682	296193 135 1463 3502 0.000066531392 0.000116706252 5 0 0 0 0
vector 683 ExperimentNetwork1.coreRouter2.eth[1].mac txPk:vector(packetBytes) ETV
attr interpolationmode none
attr source packetSentToLower
attr title "packets transmitted, vector(packetBytes)"
683	296328 114 1488 3868 0.000067486252 0.000125991392 4 64 102 332 29000
vector 684 ExperimentNetwork1.collectRouter3.eth[0].mac rxPkOk:vector(packetBytes) ETV
attr interpolationmode none
attr source rxPkOk
attr title "packets received OK, vector(packetBytes)"
684	296442 114 1494 3880 0.000067536252 0.000126041392 4 64 102 332 29000
vector 685 ExperimentNetwork1.collectRouter3.eth[0].mac passedUpPk:vector(packetBytes) ETV
attr interpolationmode none
attr source packetSentToUpper
attr title "packets passed to higher layer, vector(packetBytes)"
685	296556 114 1494 3880 0.000067536252 0.000126041392 4 64 102 332 29000
vector 686 ExperimentNetwork1.collectRouter3.eth[0].encap decapPk:vector(packetBytes) ETV
attr interpolationmode none
attr source decapPk
attr title "packets decapsulated, vector(packetBytes)"
686	296670 112 1495 3882 0.000067536252 0.000126041392 4 46 84 260 18344
vector 687 ExperimentNetwork1.coreRouter1.eth[0].mac txPk:vector(packetBytes) ETV
attr interpolationmode none
attr source packetSentToLower
attr title "packets transmitted, vector(packetBytes)"
687	296782 198 1588 4096 0.000070468519 0.000131089661 7 64 102 524 41288
vector 688 ExperimentNetwork1.internetCloud.eth[0].mac rxPkOk:vector(packetBytes) ETV
attr interpolationmode none
attr source rxPkOk
attr title "packets received OK, vector(packetBytes)"
688	296980 198 1599 4103 0.000070518519 0.000131139661 7 64 102 524 41288
vector 689 ExperimentNetwork1.internetCloud.eth[0].mac passedUpPk:vector(packetBytes) ETV
attr interpolationmode none
attr source packetSentToUpper
attr title "packets passed to higher layer, vector(packetBytes)"
689	297178 198 1599 4103 0.000070518519 0.000131139661 7 64 102 524 41288
vector 690 ExperimentNetwork1.internetCloud.eth[0].encap decapPk:vector(packetBytes) ETV
attr interpolationmode none
attr source decapPk
attr title "packets decapsulated, vector(packetBytes)"
690	297376 196 1600 4104 0.000070518519 0.000131139661 7 46 84 398 24692
vector 691 ExperimentNetwork1.internetCloud.ipv4.arp arpReplySent:vector(packetBytes) ETV
attr source arpReplySent
attr title "ARP replies sent, vector(packetBytes)"
691	297572 56 1601 2511 0.000070518519 0.000092596252 2 28 28 56 1568
vector 692 ExperimentNetwork1.internetCloud.eth[0].encap encapPk:vector(packetBytes) ETV
attr interpolationmode none
attr source encapPk
attr title "packets encapsulated, vector(packetBytes)"
692	297628 28 1602 1602 0.000070518519 0.000070518519 1 28 28 28 784
vector 693 ExperimentNetwork1.internetCloud.eth[0].mac packetReceivedFromUpper:vector(packetBytes) ETV
attr interpolationmode none
attr source packetReceivedFromUpper
attr title "packet bytes from higher layer, vector(packetBytes)"
693	297656 28 1603 1603 0.000070518519 0.000070518519 1 46 46 46 2116
vector 694 ExperimentNetwork1.internetCloud.eth[0].mac.queue packetPushed:vector(packetBytes) ETV
attr interpolationmode none
attr title "packet pushed, vector(packetBytes)"
694	297684 28 1603 1603 0.000070518519 0.000070518519 1 64 64 64 4096
vector 695 ExperimentNetwork1.internetCloud.eth[0].mac.queue queueLength:vector ETV
attr interpolationmode sample-hold
attr source "count(packetPushed) - count(packetPopped) - count(packetRemoved) - count(packetDropped)"
attr title "queue length, vector"
695	297712 54 1603 1603 0.000070518519 0.000070518519 2 0 1 1 1
vector 696 ExperimentNetwork1.internetCloud.eth[0].mac.queue packetPopped:vector(packetBytes) ETV
attr interpolationmode none
attr title "packet popped, vector(packetBytes)"
696	297766 28 1603 1603 0.000070518519 0.000070518519 1 64 64 64 4096
vector 697 ExperimentNetwork1.internetCloud.eth[0].mac.queue queueingTime:vector ETV
attr interpolationmode none
attr source queueingTime(packetPopped)
attr title "queueing times, vector"
attr unit s
697	297794 27 1603 1603 0.000070518519 0.000070518519 1 0 0 0 0
vector 698 ExperimentNetwork1.collectRouter1.eth[0].mac txPk:vector(packetBytes) ETV
attr interpolationmode none
attr source packetSentToLower
attr title "packets transmitted, vector(packetBytes)"
698	297821 201 1645 4137 0.000071579661 0.000131999661 7 64 102 638 60212
vector 699 ExperimentNetwork1.coreRouter1.eth[1].mac rxPkOk:vector(packetBytes) ETV
attr interpolationmode none
attr source rxPkOk
attr title "packets received OK, vector(packetBytes)"
699	298022 201 1646 4139 0.000071629661 0.000132049661 7 64 102 638 60212
vector 700 ExperimentNetwork1.coreRouter1.eth[1].mac passedUpPk:vector(packetBytes) ETV
attr interpolationmode none
attr source packetSentToUpper
attr title "packets passed to higher layer, vector(packetBytes)"
700	298223 201 1646 4139 0.000071629661 0.000132049661 7 64 102 638 60212
vector 701 ExperimentNetwork1.coreRouter1.eth[1].encap decapPk:vector(packetBytes) ETV
attr interpolationmode none
attr source decapPk
attr title "packets decapsulated, vector(packetBytes)"
701	298424 196 1647 4141 0.000071629661 0.000132049661 7 46 84 512 39512
vector 702 ExperimentNetwork1.coreRouter1.eth[1].encap encapPk:vector(packetBytes) ETV
attr interpolationmode none
attr source encapPk
attr title "packets encapsulated, vector(packetBytes)"
702	298620 140 1649 3422 0.000071629661 0.000114148519 5 28 84 320 23552
vector 703 ExperimentNetwork1.coreRouter1.eth[1].mac packetReceivedFromUpper:vector(packetBytes) ETV
attr interpolationmode none
attr source packetReceivedFromUpper
attr title "packet bytes from higher layer, vector(packetBytes)"
703	298760 143 1650 3423 0.000071629661 0.000114148519 5 46 102 410 36692
vector 704 ExperimentNetwork1.coreRouter1.eth[1].mac.queue packetPushed:vector(packetBytes) ETV
attr interpolationmode none
attr title "packet pushed, vector(packetBytes)"
704	298903 143 1650 3423 0.000071629661 0.000114148519 5 64 102 434 39404
vector 705 ExperimentNetwork1.coreRouter1.eth[1].mac.queue queueLength:vector ETV
attr interpolationmode sample-hold
attr source "count(packetPushed) - count(packetPopped) - count(packetRemoved) - count(packetDropped)"
attr title "queue length, vector"
705	299046 270 1650 3423 0.000071629661 0.000114148519 10 0 1 5 5
vector 706 ExperimentNetwork1.coreRouter1.eth[1].mac.queue packetPopped:vector(packetBytes) ETV
attr interpolationmode none
attr title "packet popped, vector(packetBytes)"
706	299316 143 1650 3423 0.000071629661 0.000114148519 5 64 102 434 39404
vector 707 ExperimentNetwork1.coreRouter1.eth[1].mac.queue queueingTime:vector ETV
attr interpolationmode none
attr source queueingTime(packetPopped)
attr title "queueing times, vector"
attr unit s
707	299459 158 1650 3423 0.000071629661 0.000114148519 5 0 3.881142e-006 4.082284e-006 1.5103721328328e-011
vector 708 ExperimentNetwork1.coreRouter2.eth[2].mac txPk:vector(packetBytes) ETV
attr interpolationmode none
attr source packetSentToLower
attr title "packets transmitted, vector(packetBytes)"
708	299617 140 1691 3721 0.000072291392 0.000122466252 5 64 64 320 20480
vector 709 ExperimentNetwork1.collectRouter4.eth[0].mac rxPkOk:vector(packetBytes) ETV
attr interpolationmode none
attr source rxPkOk
attr title "packets received OK, vector(packetBytes)"
709	299757 140 1692 3726 0.000072341392 0.000122516252 5 64 64 320 20480
vector 710 ExperimentNetwork1.collectRouter4.eth[0].mac passedUpPk:vector(packetBytes) ETV
attr interpolationmode none
attr source packetSentToUpper
attr title "packets passed to higher layer, vector(packetBytes)"
710	299897 140 1692 3726 0.000072341392 0.000122516252 5 64 64 320 20480
vector 711 ExperimentNetwork1.collectRouter4.eth[0].encap decapPk:vector(packetBytes) ETV
attr interpolationmode none
attr source decapPk
attr title "packets decapsulated, vector(packetBytes)"
711	300037 140 1693 3727 0.000072341392 0.000122516252 5 46 46 230 10580
vector 712 ExperimentNetwork1.host1[0].app[0] pingRxSeq:vector ETV
attr interpolationmode none
attr title "ping rx seq, vector"
712	300177 108 1752 4014 0.000073569661 0.000129089661 4 0 3 6 14
vector 713 ExperimentNetwork1.host1[0].app[0] rtt:vector ETV
attr interpolationmode none
attr title "ping round-trip time, vector"
attr unit s
713	300285 160 1752 4014 0.000073569661 0.000129089661 4 5.2040925e-005 6.2760925e-005 0.0002256037 1.2802305363423e-008
vector 714 ExperimentNetwork1.internetCloud.eth[0].mac txPk:vector(packetBytes) ETV
attr interpolationmode none
attr source packetSentToLower
attr title "packets transmitted, vector(packetBytes)"
714	300445 28 1853 1853 0.000076278519 0.000076278519 1 64 64 64 4096
vector 715 ExperimentNetwork1.coreRouter1.eth[0].mac rxPkOk:vector(packetBytes) ETV
attr interpolationmode none
attr source rxPkOk
attr title "packets received OK, vector(packetBytes)"
715	300473 28 1854 1854 0.000076328519 0.000076328519 1 64 64 64 4096
vector 716 ExperimentNetwork1.coreRouter1.eth[0].mac passedUpPk:vector(packetBytes) ETV
attr interpolationmode none
attr source packetSentToUpper
attr title "packets passed to higher layer, vector(packetBytes)"
716	300501 28 1854 1854 0.000076328519 0.000076328519 1 64 64 64 4096
vector 717 ExperimentNetwork1.coreRouter1.eth[0].encap decapPk:vector(packetBytes) ETV
attr interpolationmode none
attr source decapPk
attr title "packets decapsulated, vector(packetBytes)"
717	300529 28 1855 1855 0.000076328519 0.000076328519 1 46 46 46 2116
vector 718 ExperimentNetwork1.coreRouter1.eth[1].mac txPk:vector(packetBytes) ETV
attr interpolationmode none
attr source packetSentToLower
attr title "packets transmitted, vector(packetBytes)"
718	300557 143 1880 3740 0.000077389661 0.000122948519 5 64 102 434 39404
vector 719 ExperimentNetwork1.collectRouter1.eth[0].mac rxPkOk:vector(packetBytes) ETV
attr interpolationmode none
attr source rxPkOk
attr title "packets received OK, vector(packetBytes)"
719	300700 143 1881 3741 0.000077439661 0.000122998519 5 64 102 434 39404
vector 720 ExperimentNetwork1.collectRouter1.eth[0].mac passedUpPk:vector(packetBytes) ETV
attr interpolationmode none
attr source packetSentToUpper
attr title "packets passed to higher layer, vector(packetBytes)"
720	300843 143 1881 3741 0.000077439661 0.000122998519 5 64 102 434 39404
vector 721 ExperimentNetwork1.collectRouter1.eth[0].encap decapPk:vector(packetBytes) ETV
attr interpolationmode none
attr source decapPk
attr title "packets decapsulated, vector(packetBytes)"
721	300986 140 1882 3743 0.000077439661 0.000122998519 5 46 84 344 25400
vector 722 ExperimentNetwork1.host4[3].app[0] pingRxSeq:vector ETV
attr interpolationmode none
attr title "ping rx seq, vector"
722	301126 54 2146 2950 0.000084175181 0.000103695181 2 0 1 1 1
vector 723 ExperimentNetwork1.host4[3].app[0] rtt:vector ETV
attr interpolationmode none
attr title "ping round-trip time, vector"
attr unit s
723	301180 72 2146 2950 0.000084175181 0.000103695181 2 4.654e-005 4.702e-005 9.356e-005 4.376852e-009
vector 724 ExperimentNetwork1.host4[0].app[0] pingRxSeq:vector ETV
attr interpolationmode none
attr title "ping rx seq, vector"
724	301252 54 2242 2654 0.000085995181 0.000095755181 2 0 1 1 1
vector 725 ExperimentNetwork1.host4[0].app[0] rtt:vector ETV
attr interpolationmode none
attr title "ping round-trip time, vector"
attr unit s
725	301306 80 2242 2654 0.000085995181 0.000095755181 2 4.7296006e-005 5.7536006e-005 0.000104832012 5.5473041699841e-009
vector 726 ExperimentNetwork1.coreRouter2.ipv4.arp arpRequestSent:vector(packetBytes) ETV
attr source arpRequestSent
attr title "ARP request sent, vector(packetBytes)"
726	301386 28 2262 2262 0.000086786252 0.000086786252 1 28 28 28 784
vector 727 ExperimentNetwork1.coreRouter2.eth[0].encap encapPk:vector(packetBytes) ETV
attr interpolationmode none
attr source encapPk
attr title "packets encapsulated, vector(packetBytes)"
727	301414 196 2263 3899 0.000086786252 0.000126466252 7 28 84 444 32208
vector 728 ExperimentNetwork1.coreRouter2.eth[0].mac packetReceivedFromUpper:vector(packetBytes) ETV
attr interpolationmode none
attr source packetReceivedFromUpper
attr title "packet bytes from higher layer, vector(packetBytes)"
728	301610 200 2264 3900 0.000086786252 0.000126466252 7 46 102 570 50460
vector 729 ExperimentNetwork1.coreRouter2.eth[0].mac.queue packetPushed:vector(packetBytes) ETV
attr interpolationmode none
attr title "packet pushed, vector(packetBytes)"
729	301810 200 2264 3900 0.000086786252 0.000126466252 7 64 102 600 53904
vector 730 ExperimentNetwork1.coreRouter2.eth[0].mac.queue queueLength:vector ETV
attr interpolationmode sample-hold
attr source "count(packetPushed) - count(packetPopped) - count(packetRemoved) - count(packetDropped)"
attr title "queue length, vector"
730	302010 324 2264 3900 0.000086786252 0.000126466252 12 0 3 18 38
vector 731 ExperimentNetwork1.coreRouter2.eth[0].mac.queue packetPopped:vector(packetBytes) ETV
attr interpolationmode none
attr title "packet popped, vector(packetBytes)"
731	302334 143 2264 3804 0.000086786252 0.000124646252 5 64 102 434 39404
vector 732 ExperimentNetwork1.coreRouter2.eth[0].mac.queue queueingTime:vector ETV
attr interpolationmode none
attr source queueingTime(packetPopped)
attr title "queueing times, vector"
attr unit s
732	302477 161 2264 3804 0.000086786252 0.000124646252 5 0 2.624e-005 4.944e-005 1.0052864e-009
vector 733 ExperimentNetwork1.host2[0].app[0] pingRxSeq:vector ETV
attr interpolationmode none
attr title "ping rx seq, vector"
733	302638 78 2318 3931 0.00008814627 0.00012718627 3 0 2 3 5
vector 734 ExperimentNetwork1.host2[0].app[0] rtt:vector ETV
attr interpolationmode none
attr title "ping round-trip time, vector"
attr unit s
734	302716 105 2318 3931 0.00008814627 0.00012718627 3 4.606e-005 4.702e-005 0.00013962 6.4983756e-009
vector 735 ExperimentNetwork1.coreRouter2.eth[0].mac txPk:vector(packetBytes) ETV
attr interpolationmode none
attr source packetSentToLower
attr title "packets transmitted, vector(packetBytes)"
735	302821 114 2501 3772 0.000092546252 0.000123686252 4 64 102 332 29000
vector 736 ExperimentNetwork1.internetCloud.eth[1].mac rxPkOk:vector(packetBytes) ETV
attr interpolationmode none
attr source rxPkOk
attr title "packets received OK, vector(packetBytes)"
736	302935 114 2508 3777 0.000092596252 0.000123736252 4 64 102 332 29000
vector 737 ExperimentNetwork1.internetCloud.eth[1].mac passedUpPk:vector(packetBytes) ETV
attr interpolationmode none
attr source packetSentToUpper
attr title "packets passed to higher layer, vector(packetBytes)"
737	303049 114 2508 3777 0.000092596252 0.000123736252 4 64 102 332 29000
vector 738 ExperimentNetwork1.internetCloud.eth[1].encap decapPk:vector(packetBytes) ETV
attr interpolationmode none
attr source decapPk
attr title "packets decapsulated, vector(packetBytes)"
738	303163 112 2510 3778 0.000092596252 0.000123736252 4 46 84 260 18344
vector 739 ExperimentNetwork1.internetCloud.eth[1].encap encapPk:vector(packetBytes) ETV
attr interpolationmode none
attr source encapPk
attr title "packets encapsulated, vector(packetBytes)"
739	303275 28 2512 2512 0.000092596252 0.000092596252 1 28 28 28 784
vector 740 ExperimentNetwork1.internetCloud.eth[1].mac packetReceivedFromUpper:vector(packetBytes) ETV
attr interpolationmode none
attr source packetReceivedFromUpper
attr title "packet bytes from higher layer, vector(packetBytes)"
740	303303 28 2513 2513 0.000092596252 0.000092596252 1 46 46 46 2116
vector 741 ExperimentNetwork1.internetCloud.eth[1].mac.queue packetPushed:vector(packetBytes) ETV
attr interpolationmode none
attr title "packet pushed, vector(packetBytes)"
741	303331 28 2513 2513 0.000092596252 0.000092596252 1 64 64 64 4096
vector 742 ExperimentNetwork1.internetCloud.eth[1].mac.queue queueLength:vector ETV
attr interpolationmode sample-hold
attr source "count(packetPushed) - count(packetPopped) - count(packetRemoved) - count(packetDropped)"
attr title "queue length, vector"
742	303359 54 2513 2513 0.000092596252 0.000092596252 2 0 1 1 1
vector 743 ExperimentNetwork1.internetCloud.eth[1].mac.queue packetPopped:vector(packetBytes) ETV
attr interpolationmode none
attr title "packet popped, vector(packetBytes)"
743	303413 28 2513 2513 0.000092596252 0.000092596252 1 64 64 64 4096
vector 744 ExperimentNetwork1.internetCloud.eth[1].mac.queue queueingTime:vector ETV
attr interpolationmode none
attr source queueingTime(packetPopped)
attr title "queueing times, vector"
attr unit s
744	303441 27 2513 2513 0.000092596252 0.000092596252 1 0 0 0 0
vector 745 ExperimentNetwork1.host3[0].app[0] pingRxSeq:vector ETV
attr interpolationmode none
attr title "ping rx seq, vector"
745	303468 81 2676 3852 0.000096404322 0.000125684322 3 0 2 3 5
vector 746 ExperimentNetwork1.host3[0].app[0] rtt:vector ETV
attr interpolationmode none
attr title "ping round-trip time, vector"
attr unit s
746	303549 120 2676 3852 0.000096404322 0.000125684322 3 3.6539588e-005 4.7259588e-005 0.000127538764 5.4817617075492e-009
vector 747 ExperimentNetwork1.internetCloud.eth[1].mac txPk:vector(packetBytes) ETV
attr interpolationmode none
attr source packetSentToLower
attr title "packets transmitted, vector(packetBytes)"
747	303669 28 2736 2736 0.000098356252 0.000098356252 1 64 64 64 4096
vector 748 ExperimentNetwork1.coreRouter2.eth[0].mac rxPkOk:vector(packetBytes) ETV
attr interpolationmode none
attr source rxPkOk
attr title "packets received OK, vector(packetBytes)"
748	303697 28 2737 2737 0.000098406252 0.000098406252 1 64 64 64 4096
vector 749 ExperimentNetwork1.coreRouter2.eth[0].mac passedUpPk:vector(packetBytes) ETV
attr interpolationmode none
attr source packetSentToUpper
attr title "packets passed to higher layer, vector(packetBytes)"
749	303725 28 2737 2737 0.000098406252 0.000098406252 1 64 64 64 4096
vector 750 ExperimentNetwork1.coreRouter2.eth[0].encap decapPk:vector(packetBytes) ETV
attr interpolationmode none
attr source decapPk
attr title "packets decapsulated, vector(packetBytes)"
750	303753 30 2738 2738 0.000098406252 0.000098406252 1 46 46 46 2116
