version 2
run ExperimentNetwork1-0-20200907-20:09:32-9028
attr configname ExperimentNetwork1
attr datetime 20200907-20:09:32
attr experiment ExperimentNetwork1
attr inifile omnetpp.ini
attr iterationvars ""
attr iterationvarsf ""
attr measurement ""
attr network ExperimentNetwork1
attr processid 9028
attr repetition 0
attr replication #0
attr resultdir results
attr runnumber 0
attr seedset 0
param *.numBot 2
param *.numHost 4
param *.bot*[*].numPktGen 4
param *.bot*[*].pg[*].localPort 1234
param *.bot*[*].pg[*].destPort 1234
param *.bot*[*].pg[*].startTime "uniform(0.01ms, 0.05ms)"
param *.bot*[*].pg[*].sendInterval 0.01ms
param *.bot*[*].pg[0].packetType "\"UDP\""
param *.bot*[*].pg[0].packetName "\"UDPFlood\""
param *.bot*[*].pg[1].packetType "\"TCP_SYN\""
param *.bot*[*].pg[1].packetName "\"SYNFlood\""
param *.bot*[*].pg[2].packetType "\"TCP_SYNACK\""
param *.bot*[*].pg[2].packetName "\"SYNACKFlood\""
param *.bot*[*].pg[3].packetType "\"TCP_ACK\""
param *.bot*[*].pg[3].packetName "\"ACKFlood\""
param *.bot1[0].pg[*].destAddr "\"host2[0]\""
param *.bot1[1].pg[*].destAddr "\"host3[0]\""
param *.bot2[0].pg[*].destAddr "\"host1[0]\""
param *.bot2[1].pg[*].destAddr "\"host4[0]\""
param *.bot3[0].pg[*].destAddr "\"host4[0]\""
param *.bot3[1].pg[*].destAddr "\"host1[0]\""
param *.bot4[0].pg[*].destAddr "\"host3[0]\""
param *.bot4[1].pg[*].destAddr "\"host2[0]\""
param *.host*[*].numApps 1
param *.host*[*].app[*].typename "\"PingApp\""
param *.host*[*].app[*].sendInterval 0.02ms
param *.host*[*].app[*].startTime "uniform(0.01ms, 0.05ms)"
param *.host1[0].app[*].destAddr "\"host1[1]\""
param *.host1[1].app[*].destAddr "\"host2[0]\""
param *.host1[2].app[*].destAddr "\"host3[0]\""
param *.host1[3].app[*].destAddr "\"host4[0]\""
param *.host2[0].app[*].destAddr "\"host2[1]\""
param *.host2[1].app[*].destAddr "\"host1[0]\""
param *.host2[2].app[*].destAddr "\"host3[0]\""
param *.host2[3].app[*].destAddr "\"host4[0]\""
param *.host3[0].app[*].destAddr "\"host3[1]\""
param *.host3[1].app[*].destAddr "\"host1[0]\""
param *.host3[2].app[*].destAddr "\"host2[0]\""
param *.host3[3].app[*].destAddr "\"host4[0]\""
param *.host4[0].app[*].destAddr "\"host4[1]\""
param *.host4[1].app[*].destAddr "\"host2[0]\""
param *.host4[2].app[*].destAddr "\"host3[0]\""
param *.host4[3].app[*].destAddr "\"host4[0]\""
param *.internetCloud.ipv4Delayer.config "xml(\"<internetCloud symmetric='true'>   \t\t\t\t\t\t\t\t\t\t<parameters name='good'>     \t\t\t\t\t\t\t\t\t\t<traffic src='**' dest='**' delay='10ms+truncnormal(100ms,20ms)' datarate='uniform(100kbps,500kbps)' drop='uniform(0,1) &lt; uniform(0.01, 0.05)' />   \t\t\t\t\t\t\t\t\t\t</parameters> \t\t\t\t\t\t\t\t\t</internetCloud>\")"
param *.visualizer.*.interfaceTableVisualizer.displayInterfaceTables true

vector 0 ExperimentNetwork1.host1[0].app[0] pingTxSeq:vector ETV
attr interpolationmode none
attr title "ping tx seq, vector"
vector 1 ExperimentNetwork1.host1[0].ipv4.arp arpRequestSent:vector(packetBytes) ETV
attr source arpRequestSent
attr title "ARP request sent, vector(packetBytes)"
vector 2 ExperimentNetwork1.host1[0].eth[0].encap encapPk:vector(packetBytes) ETV
attr interpolationmode none
attr source encapPk
attr title "packets encapsulated, vector(packetBytes)"
vector 3 ExperimentNetwork1.host1[0].eth[0].mac packetReceivedFromUpper:vector(packetBytes) ETV
attr interpolationmode none
attr source packetReceivedFromUpper
attr title "packet bytes from higher layer, vector(packetBytes)"
vector 4 ExperimentNetwork1.host1[0].eth[0].mac.queue packetPushed:vector(packetBytes) ETV
attr interpolationmode none
attr title "packet pushed, vector(packetBytes)"
vector 5 ExperimentNetwork1.host1[0].eth[0].mac.queue queueLength:vector ETV
attr interpolationmode sample-hold
attr source "count(packetPushed) - count(packetPopped) - count(packetRemoved) - count(packetDropped)"
attr title "queue length, vector"
vector 6 ExperimentNetwork1.host1[0].eth[0].mac.queue packetPopped:vector(packetBytes) ETV
attr interpolationmode none
attr title "packet popped, vector(packetBytes)"
vector 7 ExperimentNetwork1.host1[0].eth[0].mac.queue queueingTime:vector ETV
attr interpolationmode none
attr source queueingTime(packetPopped)
attr title "queueing times, vector"
attr unit s
vector 8 ExperimentNetwork1.bot2[1].ipv4.arp arpRequestSent:vector(packetBytes) ETV
attr source arpRequestSent
attr title "ARP request sent, vector(packetBytes)"
vector 9 ExperimentNetwork1.bot2[1].eth[0].encap encapPk:vector(packetBytes) ETV
attr interpolationmode none
attr source encapPk
attr title "packets encapsulated, vector(packetBytes)"
vector 10 ExperimentNetwork1.bot2[1].eth[0].mac packetReceivedFromUpper:vector(packetBytes) ETV
attr interpolationmode none
attr source packetReceivedFromUpper
attr title "packet bytes from higher layer, vector(packetBytes)"
vector 11 ExperimentNetwork1.bot2[1].eth[0].mac.queue packetPushed:vector(packetBytes) ETV
attr interpolationmode none
attr title "packet pushed, vector(packetBytes)"
vector 12 ExperimentNetwork1.bot2[1].eth[0].mac.queue queueLength:vector ETV
attr interpolationmode sample-hold
attr source "count(packetPushed) - count(packetPopped) - count(packetRemoved) - count(packetDropped)"
attr title "queue length, vector"
vector 13 ExperimentNetwork1.bot2[1].eth[0].mac.queue packetPopped:vector(packetBytes) ETV
attr interpolationmode none
attr title "packet popped, vector(packetBytes)"
vector 14 ExperimentNetwork1.bot2[1].eth[0].mac.queue queueingTime:vector ETV
attr interpolationmode none
attr source queueingTime(packetPopped)
attr title "queueing times, vector"
attr unit s
vector 15 ExperimentNetwork1.bot4[1].ipv4.arp arpRequestSent:vector(packetBytes) ETV
attr source arpRequestSent
attr title "ARP request sent, vector(packetBytes)"
vector 16 ExperimentNetwork1.bot4[1].eth[0].encap encapPk:vector(packetBytes) ETV
attr interpolationmode none
attr source encapPk
attr title "packets encapsulated, vector(packetBytes)"
vector 17 ExperimentNetwork1.bot4[1].eth[0].mac packetReceivedFromUpper:vector(packetBytes) ETV
attr interpolationmode none
attr source packetReceivedFromUpper
attr title "packet bytes from higher layer, vector(packetBytes)"
vector 18 ExperimentNetwork1.bot4[1].eth[0].mac.queue packetPushed:vector(packetBytes) ETV
attr interpolationmode none
attr title "packet pushed, vector(packetBytes)"
vector 19 ExperimentNetwork1.bot4[1].eth[0].mac.queue queueLength:vector ETV
attr interpolationmode sample-hold
attr source "count(packetPushed) - count(packetPopped) - count(packetRemoved) - count(packetDropped)"
attr title "queue length, vector"
vector 20 ExperimentNetwork1.bot4[1].eth[0].mac.queue packetPopped:vector(packetBytes) ETV
attr interpolationmode none
attr title "packet popped, vector(packetBytes)"
vector 21 ExperimentNetwork1.bot4[1].eth[0].mac.queue queueingTime:vector ETV
attr interpolationmode none
attr source queueingTime(packetPopped)
attr title "queueing times, vector"
attr unit s
vector 22 ExperimentNetwork1.host2[1].app[0] pingTxSeq:vector ETV
attr interpolationmode none
attr title "ping tx seq, vector"
vector 23 ExperimentNetwork1.host2[1].ipv4.arp arpRequestSent:vector(packetBytes) ETV
attr source arpRequestSent
attr title "ARP request sent, vector(packetBytes)"
vector 24 ExperimentNetwork1.host2[1].eth[0].encap encapPk:vector(packetBytes) ETV
attr interpolationmode none
attr source encapPk
attr title "packets encapsulated, vector(packetBytes)"
vector 25 ExperimentNetwork1.host2[1].eth[0].mac packetReceivedFromUpper:vector(packetBytes) ETV
attr interpolationmode none
attr source packetReceivedFromUpper
attr title "packet bytes from higher layer, vector(packetBytes)"
vector 26 ExperimentNetwork1.host2[1].eth[0].mac.queue packetPushed:vector(packetBytes) ETV
attr interpolationmode none
attr title "packet pushed, vector(packetBytes)"
vector 27 ExperimentNetwork1.host2[1].eth[0].mac.queue queueLength:vector ETV
attr interpolationmode sample-hold
attr source "count(packetPushed) - count(packetPopped) - count(packetRemoved) - count(packetDropped)"
attr title "queue length, vector"
vector 28 ExperimentNetwork1.host2[1].eth[0].mac.queue packetPopped:vector(packetBytes) ETV
attr interpolationmode none
attr title "packet popped, vector(packetBytes)"
vector 29 ExperimentNetwork1.host2[1].eth[0].mac.queue queueingTime:vector ETV
attr interpolationmode none
attr source queueingTime(packetPopped)
attr title "queueing times, vector"
attr unit s
vector 30 ExperimentNetwork1.host1[0].eth[0].mac txPk:vector(packetBytes) ETV
attr interpolationmode none
attr source packetSentToLower
attr title "packets transmitted, vector(packetBytes)"
vector 31 ExperimentNetwork1.connectRouter1.eth[2].mac rxPkOk:vector(packetBytes) ETV
attr interpolationmode none
attr source rxPkOk
attr title "packets received OK, vector(packetBytes)"
vector 32 ExperimentNetwork1.connectRouter1.eth[2].mac passedUpPk:vector(packetBytes) ETV
attr interpolationmode none
attr source packetSentToUpper
attr title "packets passed to higher layer, vector(packetBytes)"
vector 33 ExperimentNetwork1.connectRouter1.eth[2].encap decapPk:vector(packetBytes) ETV
attr interpolationmode none
attr source decapPk
attr title "packets decapsulated, vector(packetBytes)"
vector 34 ExperimentNetwork1.connectRouter1.ipv4.arp arpReplySent:vector(packetBytes) ETV
attr source arpReplySent
attr title "ARP replies sent, vector(packetBytes)"
vector 35 ExperimentNetwork1.connectRouter1.eth[2].encap encapPk:vector(packetBytes) ETV
attr interpolationmode none
attr source encapPk
attr title "packets encapsulated, vector(packetBytes)"
vector 36 ExperimentNetwork1.connectRouter1.eth[2].mac packetReceivedFromUpper:vector(packetBytes) ETV
attr interpolationmode none
attr source packetReceivedFromUpper
attr title "packet bytes from higher layer, vector(packetBytes)"
vector 37 ExperimentNetwork1.connectRouter1.eth[2].mac.queue packetPushed:vector(packetBytes) ETV
attr interpolationmode none
attr title "packet pushed, vector(packetBytes)"
vector 38 ExperimentNetwork1.connectRouter1.eth[2].mac.queue queueLength:vector ETV
attr interpolationmode sample-hold
attr source "count(packetPushed) - count(packetPopped) - count(packetRemoved) - count(packetDropped)"
attr title "queue length, vector"
vector 39 ExperimentNetwork1.connectRouter1.eth[2].mac.queue packetPopped:vector(packetBytes) ETV
attr interpolationmode none
attr title "packet popped, vector(packetBytes)"
vector 40 ExperimentNetwork1.connectRouter1.eth[2].mac.queue queueingTime:vector ETV
attr interpolationmode none
attr source queueingTime(packetPopped)
attr title "queueing times, vector"
attr unit s
vector 41 ExperimentNetwork1.bot2[1].eth[0].mac txPk:vector(packetBytes) ETV
attr interpolationmode none
attr source packetSentToLower
attr title "packets transmitted, vector(packetBytes)"
vector 42 ExperimentNetwork1.connectRouter2.eth[1].mac rxPkOk:vector(packetBytes) ETV
attr interpolationmode none
attr source rxPkOk
attr title "packets received OK, vector(packetBytes)"
vector 43 ExperimentNetwork1.connectRouter2.eth[1].mac passedUpPk:vector(packetBytes) ETV
attr interpolationmode none
attr source packetSentToUpper
attr title "packets passed to higher layer, vector(packetBytes)"
vector 44 ExperimentNetwork1.connectRouter2.eth[1].encap decapPk:vector(packetBytes) ETV
attr interpolationmode none
attr source decapPk
attr title "packets decapsulated, vector(packetBytes)"
vector 45 ExperimentNetwork1.connectRouter2.ipv4.arp arpReplySent:vector(packetBytes) ETV
attr source arpReplySent
attr title "ARP replies sent, vector(packetBytes)"
vector 46 ExperimentNetwork1.connectRouter2.eth[1].encap encapPk:vector(packetBytes) ETV
attr interpolationmode none
attr source encapPk
attr title "packets encapsulated, vector(packetBytes)"
vector 47 ExperimentNetwork1.connectRouter2.eth[1].mac packetReceivedFromUpper:vector(packetBytes) ETV
attr interpolationmode none
attr source packetReceivedFromUpper
attr title "packet bytes from higher layer, vector(packetBytes)"
vector 48 ExperimentNetwork1.connectRouter2.eth[1].mac.queue packetPushed:vector(packetBytes) ETV
attr interpolationmode none
attr title "packet pushed, vector(packetBytes)"
vector 49 ExperimentNetwork1.connectRouter2.eth[1].mac.queue queueLength:vector ETV
attr interpolationmode sample-hold
attr source "count(packetPushed) - count(packetPopped) - count(packetRemoved) - count(packetDropped)"
attr title "queue length, vector"
vector 50 ExperimentNetwork1.connectRouter2.eth[1].mac.queue packetPopped:vector(packetBytes) ETV
attr interpolationmode none
attr title "packet popped, vector(packetBytes)"
vector 51 ExperimentNetwork1.connectRouter2.eth[1].mac.queue queueingTime:vector ETV
attr interpolationmode none
attr source queueingTime(packetPopped)
attr title "queueing times, vector"
attr unit s
vector 52 ExperimentNetwork1.bot4[1].eth[0].mac txPk:vector(packetBytes) ETV
attr interpolationmode none
attr source packetSentToLower
attr title "packets transmitted, vector(packetBytes)"
vector 53 ExperimentNetwork1.connectRouter4.eth[1].mac rxPkOk:vector(packetBytes) ETV
attr interpolationmode none
attr source rxPkOk
attr title "packets received OK, vector(packetBytes)"
vector 54 ExperimentNetwork1.connectRouter4.eth[1].mac passedUpPk:vector(packetBytes) ETV
attr interpolationmode none
attr source packetSentToUpper
attr title "packets passed to higher layer, vector(packetBytes)"
vector 55 ExperimentNetwork1.connectRouter4.eth[1].encap decapPk:vector(packetBytes) ETV
attr interpolationmode none
attr source decapPk
attr title "packets decapsulated, vector(packetBytes)"
vector 56 ExperimentNetwork1.connectRouter4.ipv4.arp arpReplySent:vector(packetBytes) ETV
attr source arpReplySent
attr title "ARP replies sent, vector(packetBytes)"
vector 57 ExperimentNetwork1.connectRouter4.eth[1].encap encapPk:vector(packetBytes) ETV
attr interpolationmode none
attr source encapPk
attr title "packets encapsulated, vector(packetBytes)"
vector 58 ExperimentNetwork1.connectRouter4.eth[1].mac packetReceivedFromUpper:vector(packetBytes) ETV
attr interpolationmode none
attr source packetReceivedFromUpper
attr title "packet bytes from higher layer, vector(packetBytes)"
vector 59 ExperimentNetwork1.connectRouter4.eth[1].mac.queue packetPushed:vector(packetBytes) ETV
attr interpolationmode none
attr title "packet pushed, vector(packetBytes)"
vector 60 ExperimentNetwork1.connectRouter4.eth[1].mac.queue queueLength:vector ETV
attr interpolationmode sample-hold
attr source "count(packetPushed) - count(packetPopped) - count(packetRemoved) - count(packetDropped)"
attr title "queue length, vector"
vector 61 ExperimentNetwork1.connectRouter4.eth[1].mac.queue packetPopped:vector(packetBytes) ETV
attr interpolationmode none
attr title "packet popped, vector(packetBytes)"
vector 62 ExperimentNetwork1.connectRouter4.eth[1].mac.queue queueingTime:vector ETV
attr interpolationmode none
attr source queueingTime(packetPopped)
attr title "queueing times, vector"
attr unit s
vector 63 ExperimentNetwork1.bot3[0].ipv4.arp arpRequestSent:vector(packetBytes) ETV
attr source arpRequestSent
attr title "ARP request sent, vector(packetBytes)"
vector 64 ExperimentNetwork1.bot3[0].eth[0].encap encapPk:vector(packetBytes) ETV
attr interpolationmode none
attr source encapPk
attr title "packets encapsulated, vector(packetBytes)"
vector 65 ExperimentNetwork1.bot3[0].eth[0].mac packetReceivedFromUpper:vector(packetBytes) ETV
attr interpolationmode none
attr source packetReceivedFromUpper
attr title "packet bytes from higher layer, vector(packetBytes)"
vector 66 ExperimentNetwork1.bot3[0].eth[0].mac.queue packetPushed:vector(packetBytes) ETV
attr interpolationmode none
attr title "packet pushed, vector(packetBytes)"
vector 67 ExperimentNetwork1.bot3[0].eth[0].mac.queue queueLength:vector ETV
attr interpolationmode sample-hold
attr source "count(packetPushed) - count(packetPopped) - count(packetRemoved) - count(packetDropped)"
attr title "queue length, vector"
vector 68 ExperimentNetwork1.bot3[0].eth[0].mac.queue packetPopped:vector(packetBytes) ETV
attr interpolationmode none
attr title "packet popped, vector(packetBytes)"
vector 69 ExperimentNetwork1.bot3[0].eth[0].mac.queue queueingTime:vector ETV
attr interpolationmode none
attr source queueingTime(packetPopped)
attr title "queueing times, vector"
attr unit s
vector 70 ExperimentNetwork1.host2[1].eth[0].mac txPk:vector(packetBytes) ETV
attr interpolationmode none
attr source packetSentToLower
attr title "packets transmitted, vector(packetBytes)"
vector 71 ExperimentNetwork1.connectRouter2.eth[3].mac rxPkOk:vector(packetBytes) ETV
attr interpolationmode none
attr source rxPkOk
attr title "packets received OK, vector(packetBytes)"
vector 72 ExperimentNetwork1.connectRouter2.eth[3].mac passedUpPk:vector(packetBytes) ETV
attr interpolationmode none
attr source packetSentToUpper
attr title "packets passed to higher layer, vector(packetBytes)"
vector 73 ExperimentNetwork1.connectRouter2.eth[3].encap decapPk:vector(packetBytes) ETV
attr interpolationmode none
attr source decapPk
attr title "packets decapsulated, vector(packetBytes)"
vector 74 ExperimentNetwork1.connectRouter2.eth[3].encap encapPk:vector(packetBytes) ETV
attr interpolationmode none
attr source encapPk
attr title "packets encapsulated, vector(packetBytes)"
vector 75 ExperimentNetwork1.connectRouter2.eth[3].mac packetReceivedFromUpper:vector(packetBytes) ETV
attr interpolationmode none
attr source packetReceivedFromUpper
attr title "packet bytes from higher layer, vector(packetBytes)"
vector 76 ExperimentNetwork1.connectRouter2.eth[3].mac.queue packetPushed:vector(packetBytes) ETV
attr interpolationmode none
attr title "packet pushed, vector(packetBytes)"
vector 77 ExperimentNetwork1.connectRouter2.eth[3].mac.queue queueLength:vector ETV
attr interpolationmode sample-hold
attr source "count(packetPushed) - count(packetPopped) - count(packetRemoved) - count(packetDropped)"
attr title "queue length, vector"
vector 78 ExperimentNetwork1.connectRouter2.eth[3].mac.queue packetPopped:vector(packetBytes) ETV
attr interpolationmode none
attr title "packet popped, vector(packetBytes)"
vector 79 ExperimentNetwork1.connectRouter2.eth[3].mac.queue queueingTime:vector ETV
attr interpolationmode none
attr source queueingTime(packetPopped)
attr title "queueing times, vector"
attr unit s
vector 80 ExperimentNetwork1.connectRouter1.eth[2].mac txPk:vector(packetBytes) ETV
attr interpolationmode none
attr source packetSentToLower
attr title "packets transmitted, vector(packetBytes)"
vector 81 ExperimentNetwork1.host1[0].eth[0].mac rxPkOk:vector(packetBytes) ETV
attr interpolationmode none
attr source rxPkOk
attr title "packets received OK, vector(packetBytes)"
vector 82 ExperimentNetwork1.host1[0].eth[0].mac passedUpPk:vector(packetBytes) ETV
attr interpolationmode none
attr source packetSentToUpper
attr title "packets passed to higher layer, vector(packetBytes)"
vector 83 ExperimentNetwork1.host1[0].eth[0].encap decapPk:vector(packetBytes) ETV
attr interpolationmode none
attr source decapPk
attr title "packets decapsulated, vector(packetBytes)"
vector 84 ExperimentNetwork1.connectRouter2.eth[1].mac txPk:vector(packetBytes) ETV
attr interpolationmode none
attr source packetSentToLower
attr title "packets transmitted, vector(packetBytes)"
vector 85 ExperimentNetwork1.bot2[1].eth[0].mac rxPkOk:vector(packetBytes) ETV
attr interpolationmode none
attr source rxPkOk
attr title "packets received OK, vector(packetBytes)"
vector 86 ExperimentNetwork1.bot2[1].eth[0].mac passedUpPk:vector(packetBytes) ETV
attr interpolationmode none
attr source packetSentToUpper
attr title "packets passed to higher layer, vector(packetBytes)"
vector 87 ExperimentNetwork1.bot2[1].eth[0].encap decapPk:vector(packetBytes) ETV
attr interpolationmode none
attr source decapPk
attr title "packets decapsulated, vector(packetBytes)"
vector 88 ExperimentNetwork1.connectRouter4.eth[1].mac txPk:vector(packetBytes) ETV
attr interpolationmode none
attr source packetSentToLower
attr title "packets transmitted, vector(packetBytes)"
vector 89 ExperimentNetwork1.bot4[1].eth[0].mac rxPkOk:vector(packetBytes) ETV
attr interpolationmode none
attr source rxPkOk
attr title "packets received OK, vector(packetBytes)"
vector 90 ExperimentNetwork1.bot4[1].eth[0].mac passedUpPk:vector(packetBytes) ETV
attr interpolationmode none
attr source packetSentToUpper
attr title "packets passed to higher layer, vector(packetBytes)"
vector 91 ExperimentNetwork1.bot4[1].eth[0].encap decapPk:vector(packetBytes) ETV
attr interpolationmode none
attr source decapPk
attr title "packets decapsulated, vector(packetBytes)"
vector 92 ExperimentNetwork1.host1[1].app[0] pingTxSeq:vector ETV
attr interpolationmode none
attr title "ping tx seq, vector"
vector 93 ExperimentNetwork1.host1[1].ipv4.arp arpRequestSent:vector(packetBytes) ETV
attr source arpRequestSent
attr title "ARP request sent, vector(packetBytes)"
vector 94 ExperimentNetwork1.host1[1].eth[0].encap encapPk:vector(packetBytes) ETV
attr interpolationmode none
attr source encapPk
attr title "packets encapsulated, vector(packetBytes)"
vector 95 ExperimentNetwork1.host1[1].eth[0].mac packetReceivedFromUpper:vector(packetBytes) ETV
attr interpolationmode none
attr source packetReceivedFromUpper
attr title "packet bytes from higher layer, vector(packetBytes)"
vector 96 ExperimentNetwork1.host1[1].eth[0].mac.queue packetPushed:vector(packetBytes) ETV
attr interpolationmode none
attr title "packet pushed, vector(packetBytes)"
vector 97 ExperimentNetwork1.host1[1].eth[0].mac.queue queueLength:vector ETV
attr interpolationmode sample-hold
attr source "count(packetPushed) - count(packetPopped) - count(packetRemoved) - count(packetDropped)"
attr title "queue length, vector"
vector 98 ExperimentNetwork1.host1[1].eth[0].mac.queue packetPopped:vector(packetBytes) ETV
attr interpolationmode none
attr title "packet popped, vector(packetBytes)"
vector 99 ExperimentNetwork1.host1[1].eth[0].mac.queue queueingTime:vector ETV
attr interpolationmode none
attr source queueingTime(packetPopped)
attr title "queueing times, vector"
attr unit s
vector 100 ExperimentNetwork1.bot2[0].ipv4.arp arpRequestSent:vector(packetBytes) ETV
attr source arpRequestSent
attr title "ARP request sent, vector(packetBytes)"
vector 101 ExperimentNetwork1.bot2[0].eth[0].encap encapPk:vector(packetBytes) ETV
attr interpolationmode none
attr source encapPk
attr title "packets encapsulated, vector(packetBytes)"
vector 102 ExperimentNetwork1.bot2[0].eth[0].mac packetReceivedFromUpper:vector(packetBytes) ETV
attr interpolationmode none
attr source packetReceivedFromUpper
attr title "packet bytes from higher layer, vector(packetBytes)"
vector 103 ExperimentNetwork1.bot2[0].eth[0].mac.queue packetPushed:vector(packetBytes) ETV
attr interpolationmode none
attr title "packet pushed, vector(packetBytes)"
vector 104 ExperimentNetwork1.bot2[0].eth[0].mac.queue queueLength:vector ETV
attr interpolationmode sample-hold
attr source "count(packetPushed) - count(packetPopped) - count(packetRemoved) - count(packetDropped)"
attr title "queue length, vector"
vector 105 ExperimentNetwork1.bot2[0].eth[0].mac.queue packetPopped:vector(packetBytes) ETV
attr interpolationmode none
attr title "packet popped, vector(packetBytes)"
vector 106 ExperimentNetwork1.bot2[0].eth[0].mac.queue queueingTime:vector ETV
attr interpolationmode none
attr source queueingTime(packetPopped)
attr title "queueing times, vector"
attr unit s
vector 107 ExperimentNetwork1.bot4[0].ipv4.arp arpRequestSent:vector(packetBytes) ETV
attr source arpRequestSent
attr title "ARP request sent, vector(packetBytes)"
vector 108 ExperimentNetwork1.bot4[0].eth[0].encap encapPk:vector(packetBytes) ETV
attr interpolationmode none
attr source encapPk
attr title "packets encapsulated, vector(packetBytes)"
vector 109 ExperimentNetwork1.bot4[0].eth[0].mac packetReceivedFromUpper:vector(packetBytes) ETV
attr interpolationmode none
attr source packetReceivedFromUpper
attr title "packet bytes from higher layer, vector(packetBytes)"
vector 110 ExperimentNetwork1.bot4[0].eth[0].mac.queue packetPushed:vector(packetBytes) ETV
attr interpolationmode none
attr title "packet pushed, vector(packetBytes)"
vector 111 ExperimentNetwork1.bot4[0].eth[0].mac.queue queueLength:vector ETV
attr interpolationmode sample-hold
attr source "count(packetPushed) - count(packetPopped) - count(packetRemoved) - count(packetDropped)"
attr title "queue length, vector"
vector 112 ExperimentNetwork1.bot4[0].eth[0].mac.queue packetPopped:vector(packetBytes) ETV
attr interpolationmode none
attr title "packet popped, vector(packetBytes)"
vector 113 ExperimentNetwork1.bot4[0].eth[0].mac.queue queueingTime:vector ETV
attr interpolationmode none
attr source queueingTime(packetPopped)
attr title "queueing times, vector"
attr unit s
vector 114 ExperimentNetwork1.bot3[0].eth[0].mac txPk:vector(packetBytes) ETV
attr interpolationmode none
attr source packetSentToLower
attr title "packets transmitted, vector(packetBytes)"
vector 115 ExperimentNetwork1.connectRouter3.eth[0].mac rxPkOk:vector(packetBytes) ETV
attr interpolationmode none
attr source rxPkOk
attr title "packets received OK, vector(packetBytes)"
vector 116 ExperimentNetwork1.connectRouter3.eth[0].mac passedUpPk:vector(packetBytes) ETV
attr interpolationmode none
attr source packetSentToUpper
attr title "packets passed to higher layer, vector(packetBytes)"
vector 117 ExperimentNetwork1.connectRouter3.eth[0].encap decapPk:vector(packetBytes) ETV
attr interpolationmode none
attr source decapPk
attr title "packets decapsulated, vector(packetBytes)"
vector 118 ExperimentNetwork1.connectRouter3.ipv4.arp arpReplySent:vector(packetBytes) ETV
attr source arpReplySent
attr title "ARP replies sent, vector(packetBytes)"
vector 119 ExperimentNetwork1.connectRouter3.eth[0].encap encapPk:vector(packetBytes) ETV
attr interpolationmode none
attr source encapPk
attr title "packets encapsulated, vector(packetBytes)"
vector 120 ExperimentNetwork1.connectRouter3.eth[0].mac packetReceivedFromUpper:vector(packetBytes) ETV
attr interpolationmode none
attr source packetReceivedFromUpper
attr title "packet bytes from higher layer, vector(packetBytes)"
vector 121 ExperimentNetwork1.connectRouter3.eth[0].mac.queue packetPushed:vector(packetBytes) ETV
attr interpolationmode none
attr title "packet pushed, vector(packetBytes)"
vector 122 ExperimentNetwork1.connectRouter3.eth[0].mac.queue queueLength:vector ETV
attr interpolationmode sample-hold
attr source "count(packetPushed) - count(packetPopped) - count(packetRemoved) - count(packetDropped)"
attr title "queue length, vector"
vector 123 ExperimentNetwork1.connectRouter3.eth[0].mac.queue packetPopped:vector(packetBytes) ETV
attr interpolationmode none
attr title "packet popped, vector(packetBytes)"
vector 124 ExperimentNetwork1.connectRouter3.eth[0].mac.queue queueingTime:vector ETV
attr interpolationmode none
attr source queueingTime(packetPopped)
attr title "queueing times, vector"
attr unit s
vector 125 ExperimentNetwork1.connectRouter2.eth[3].mac txPk:vector(packetBytes) ETV
attr interpolationmode none
attr source packetSentToLower
attr title "packets transmitted, vector(packetBytes)"
vector 126 ExperimentNetwork1.host2[1].eth[0].mac rxPkOk:vector(packetBytes) ETV
attr interpolationmode none
attr source rxPkOk
attr title "packets received OK, vector(packetBytes)"
vector 127 ExperimentNetwork1.host2[1].eth[0].mac passedUpPk:vector(packetBytes) ETV
attr interpolationmode none
attr source packetSentToUpper
attr title "packets passed to higher layer, vector(packetBytes)"
vector 128 ExperimentNetwork1.host2[1].eth[0].encap decapPk:vector(packetBytes) ETV
attr interpolationmode none
attr source decapPk
attr title "packets decapsulated, vector(packetBytes)"
vector 129 ExperimentNetwork1.host4[0].app[0] pingTxSeq:vector ETV
attr interpolationmode none
attr title "ping tx seq, vector"
vector 130 ExperimentNetwork1.host4[0].ipv4.arp arpRequestSent:vector(packetBytes) ETV
attr source arpRequestSent
attr title "ARP request sent, vector(packetBytes)"
vector 131 ExperimentNetwork1.host4[0].eth[0].encap encapPk:vector(packetBytes) ETV
attr interpolationmode none
attr source encapPk
attr title "packets encapsulated, vector(packetBytes)"
vector 132 ExperimentNetwork1.host4[0].eth[0].mac packetReceivedFromUpper:vector(packetBytes) ETV
attr interpolationmode none
attr source packetReceivedFromUpper
attr title "packet bytes from higher layer, vector(packetBytes)"
vector 133 ExperimentNetwork1.host4[0].eth[0].mac.queue packetPushed:vector(packetBytes) ETV
attr interpolationmode none
attr title "packet pushed, vector(packetBytes)"
vector 134 ExperimentNetwork1.host4[0].eth[0].mac.queue queueLength:vector ETV
attr interpolationmode sample-hold
attr source "count(packetPushed) - count(packetPopped) - count(packetRemoved) - count(packetDropped)"
attr title "queue length, vector"
vector 135 ExperimentNetwork1.host4[0].eth[0].mac.queue packetPopped:vector(packetBytes) ETV
attr interpolationmode none
attr title "packet popped, vector(packetBytes)"
vector 136 ExperimentNetwork1.host4[0].eth[0].mac.queue queueingTime:vector ETV
attr interpolationmode none
attr source queueingTime(packetPopped)
attr title "queueing times, vector"
attr unit s
vector 137 ExperimentNetwork1.host3[1].app[0] pingTxSeq:vector ETV
attr interpolationmode none
attr title "ping tx seq, vector"
vector 138 ExperimentNetwork1.host3[1].ipv4.arp arpRequestSent:vector(packetBytes) ETV
attr source arpRequestSent
attr title "ARP request sent, vector(packetBytes)"
vector 139 ExperimentNetwork1.host3[1].eth[0].encap encapPk:vector(packetBytes) ETV
attr interpolationmode none
attr source encapPk
attr title "packets encapsulated, vector(packetBytes)"
vector 140 ExperimentNetwork1.host3[1].eth[0].mac packetReceivedFromUpper:vector(packetBytes) ETV
attr interpolationmode none
attr source packetReceivedFromUpper
attr title "packet bytes from higher layer, vector(packetBytes)"
vector 141 ExperimentNetwork1.host3[1].eth[0].mac.queue packetPushed:vector(packetBytes) ETV
attr interpolationmode none
attr title "packet pushed, vector(packetBytes)"
vector 142 ExperimentNetwork1.host3[1].eth[0].mac.queue queueLength:vector ETV
attr interpolationmode sample-hold
attr source "count(packetPushed) - count(packetPopped) - count(packetRemoved) - count(packetDropped)"
attr title "queue length, vector"
vector 143 ExperimentNetwork1.host3[1].eth[0].mac.queue packetPopped:vector(packetBytes) ETV
attr interpolationmode none
attr title "packet popped, vector(packetBytes)"
vector 144 ExperimentNetwork1.host3[1].eth[0].mac.queue queueingTime:vector ETV
attr interpolationmode none
attr source queueingTime(packetPopped)
attr title "queueing times, vector"
attr unit s
vector 145 ExperimentNetwork1.bot3[1].ipv4.arp arpRequestSent:vector(packetBytes) ETV
attr source arpRequestSent
attr title "ARP request sent, vector(packetBytes)"
vector 146 ExperimentNetwork1.bot3[1].eth[0].encap encapPk:vector(packetBytes) ETV
attr interpolationmode none
attr source encapPk
attr title "packets encapsulated, vector(packetBytes)"
vector 147 ExperimentNetwork1.bot3[1].eth[0].mac packetReceivedFromUpper:vector(packetBytes) ETV
attr interpolationmode none
attr source packetReceivedFromUpper
attr title "packet bytes from higher layer, vector(packetBytes)"
vector 148 ExperimentNetwork1.bot3[1].eth[0].mac.queue packetPushed:vector(packetBytes) ETV
attr interpolationmode none
attr title "packet pushed, vector(packetBytes)"
vector 149 ExperimentNetwork1.bot3[1].eth[0].mac.queue queueLength:vector ETV
attr interpolationmode sample-hold
attr source "count(packetPushed) - count(packetPopped) - count(packetRemoved) - count(packetDropped)"
attr title "queue length, vector"
vector 150 ExperimentNetwork1.bot3[1].eth[0].mac.queue packetPopped:vector(packetBytes) ETV
attr interpolationmode none
attr title "packet popped, vector(packetBytes)"
vector 151 ExperimentNetwork1.bot3[1].eth[0].mac.queue queueingTime:vector ETV
attr interpolationmode none
attr source queueingTime(packetPopped)
attr title "queueing times, vector"
attr unit s
vector 152 ExperimentNetwork1.connectRouter2.ipv4.arp arpRequestSent:vector(packetBytes) ETV
attr source arpRequestSent
attr title "ARP request sent, vector(packetBytes)"
vector 153 ExperimentNetwork1.connectRouter2.eth[6].encap encapPk:vector(packetBytes) ETV
attr interpolationmode none
attr source encapPk
attr title "packets encapsulated, vector(packetBytes)"
vector 154 ExperimentNetwork1.connectRouter2.eth[6].mac packetReceivedFromUpper:vector(packetBytes) ETV
attr interpolationmode none
attr source packetReceivedFromUpper
attr title "packet bytes from higher layer, vector(packetBytes)"
vector 155 ExperimentNetwork1.connectRouter2.eth[6].mac.queue packetPushed:vector(packetBytes) ETV
attr interpolationmode none
attr title "packet pushed, vector(packetBytes)"
vector 156 ExperimentNetwork1.connectRouter2.eth[6].mac.queue queueLength:vector ETV
attr interpolationmode sample-hold
attr source "count(packetPushed) - count(packetPopped) - count(packetRemoved) - count(packetDropped)"
attr title "queue length, vector"
vector 157 ExperimentNetwork1.connectRouter2.eth[6].mac.queue packetPopped:vector(packetBytes) ETV
attr interpolationmode none
attr title "packet popped, vector(packetBytes)"
vector 158 ExperimentNetwork1.connectRouter2.eth[6].mac.queue queueingTime:vector ETV
attr interpolationmode none
attr source queueingTime(packetPopped)
attr title "queueing times, vector"
attr unit s
vector 159 ExperimentNetwork1.host1[1].eth[0].mac txPk:vector(packetBytes) ETV
attr interpolationmode none
attr source packetSentToLower
attr title "packets transmitted, vector(packetBytes)"
vector 160 ExperimentNetwork1.connectRouter1.eth[3].mac rxPkOk:vector(packetBytes) ETV
attr interpolationmode none
attr source rxPkOk
attr title "packets received OK, vector(packetBytes)"
vector 161 ExperimentNetwork1.connectRouter1.eth[3].mac passedUpPk:vector(packetBytes) ETV
attr interpolationmode none
attr source packetSentToUpper
attr title "packets passed to higher layer, vector(packetBytes)"
vector 162 ExperimentNetwork1.connectRouter1.eth[3].encap decapPk:vector(packetBytes) ETV
attr interpolationmode none
attr source decapPk
attr title "packets decapsulated, vector(packetBytes)"
vector 163 ExperimentNetwork1.connectRouter1.eth[3].encap encapPk:vector(packetBytes) ETV
attr interpolationmode none
attr source encapPk
attr title "packets encapsulated, vector(packetBytes)"
vector 164 ExperimentNetwork1.connectRouter1.eth[3].mac packetReceivedFromUpper:vector(packetBytes) ETV
attr interpolationmode none
attr source packetReceivedFromUpper
attr title "packet bytes from higher layer, vector(packetBytes)"
vector 165 ExperimentNetwork1.connectRouter1.eth[3].mac.queue packetPushed:vector(packetBytes) ETV
attr interpolationmode none
attr title "packet pushed, vector(packetBytes)"
vector 166 ExperimentNetwork1.connectRouter1.eth[3].mac.queue queueLength:vector ETV
attr interpolationmode sample-hold
attr source "count(packetPushed) - count(packetPopped) - count(packetRemoved) - count(packetDropped)"
attr title "queue length, vector"
vector 167 ExperimentNetwork1.connectRouter1.eth[3].mac.queue packetPopped:vector(packetBytes) ETV
attr interpolationmode none
attr title "packet popped, vector(packetBytes)"
vector 168 ExperimentNetwork1.connectRouter1.eth[3].mac.queue queueingTime:vector ETV
attr interpolationmode none
attr source queueingTime(packetPopped)
attr title "queueing times, vector"
attr unit s
vector 169 ExperimentNetwork1.host4[1].app[0] pingTxSeq:vector ETV
attr interpolationmode none
attr title "ping tx seq, vector"
vector 170 ExperimentNetwork1.host4[1].ipv4.arp arpRequestSent:vector(packetBytes) ETV
attr source arpRequestSent
attr title "ARP request sent, vector(packetBytes)"
vector 171 ExperimentNetwork1.host4[1].eth[0].encap encapPk:vector(packetBytes) ETV
attr interpolationmode none
attr source encapPk
attr title "packets encapsulated, vector(packetBytes)"
vector 172 ExperimentNetwork1.host4[1].eth[0].mac packetReceivedFromUpper:vector(packetBytes) ETV
attr interpolationmode none
attr source packetReceivedFromUpper
attr title "packet bytes from higher layer, vector(packetBytes)"
vector 173 ExperimentNetwork1.host4[1].eth[0].mac.queue packetPushed:vector(packetBytes) ETV
attr interpolationmode none
attr title "packet pushed, vector(packetBytes)"
vector 174 ExperimentNetwork1.host4[1].eth[0].mac.queue queueLength:vector ETV
attr interpolationmode sample-hold
attr source "count(packetPushed) - count(packetPopped) - count(packetRemoved) - count(packetDropped)"
attr title "queue length, vector"
vector 175 ExperimentNetwork1.host4[1].eth[0].mac.queue packetPopped:vector(packetBytes) ETV
attr interpolationmode none
attr title "packet popped, vector(packetBytes)"
vector 176 ExperimentNetwork1.host4[1].eth[0].mac.queue queueingTime:vector ETV
attr interpolationmode none
attr source queueingTime(packetPopped)
attr title "queueing times, vector"
attr unit s
vector 177 ExperimentNetwork1.bot2[0].eth[0].mac txPk:vector(packetBytes) ETV
attr interpolationmode none
attr source packetSentToLower
attr title "packets transmitted, vector(packetBytes)"
vector 178 ExperimentNetwork1.connectRouter2.eth[0].mac rxPkOk:vector(packetBytes) ETV
attr interpolationmode none
attr source rxPkOk
attr title "packets received OK, vector(packetBytes)"
vector 179 ExperimentNetwork1.connectRouter2.eth[0].mac passedUpPk:vector(packetBytes) ETV
attr interpolationmode none
attr source packetSentToUpper
attr title "packets passed to higher layer, vector(packetBytes)"
vector 180 ExperimentNetwork1.connectRouter2.eth[0].encap decapPk:vector(packetBytes) ETV
attr interpolationmode none
attr source decapPk
attr title "packets decapsulated, vector(packetBytes)"
vector 181 ExperimentNetwork1.connectRouter2.eth[0].encap encapPk:vector(packetBytes) ETV
attr interpolationmode none
attr source encapPk
attr title "packets encapsulated, vector(packetBytes)"
vector 182 ExperimentNetwork1.connectRouter2.eth[0].mac packetReceivedFromUpper:vector(packetBytes) ETV
attr interpolationmode none
attr source packetReceivedFromUpper
attr title "packet bytes from higher layer, vector(packetBytes)"
vector 183 ExperimentNetwork1.connectRouter2.eth[0].mac.queue packetPushed:vector(packetBytes) ETV
attr interpolationmode none
attr title "packet pushed, vector(packetBytes)"
vector 184 ExperimentNetwork1.connectRouter2.eth[0].mac.queue queueLength:vector ETV
attr interpolationmode sample-hold
attr source "count(packetPushed) - count(packetPopped) - count(packetRemoved) - count(packetDropped)"
attr title "queue length, vector"
vector 185 ExperimentNetwork1.connectRouter2.eth[0].mac.queue packetPopped:vector(packetBytes) ETV
attr interpolationmode none
attr title "packet popped, vector(packetBytes)"
vector 186 ExperimentNetwork1.connectRouter2.eth[0].mac.queue queueingTime:vector ETV
attr interpolationmode none
attr source queueingTime(packetPopped)
attr title "queueing times, vector"
attr unit s
vector 187 ExperimentNetwork1.bot4[0].eth[0].mac txPk:vector(packetBytes) ETV
attr interpolationmode none
attr source packetSentToLower
attr title "packets transmitted, vector(packetBytes)"
vector 188 ExperimentNetwork1.connectRouter4.eth[0].mac rxPkOk:vector(packetBytes) ETV
attr interpolationmode none
attr source rxPkOk
attr title "packets received OK, vector(packetBytes)"
vector 189 ExperimentNetwork1.connectRouter4.eth[0].mac passedUpPk:vector(packetBytes) ETV
attr interpolationmode none
attr source packetSentToUpper
attr title "packets passed to higher layer, vector(packetBytes)"
vector 190 ExperimentNetwork1.connectRouter4.eth[0].encap decapPk:vector(packetBytes) ETV
attr interpolationmode none
attr source decapPk
attr title "packets decapsulated, vector(packetBytes)"
vector 191 ExperimentNetwork1.connectRouter4.eth[0].encap encapPk:vector(packetBytes) ETV
attr interpolationmode none
attr source encapPk
attr title "packets encapsulated, vector(packetBytes)"
vector 192 ExperimentNetwork1.connectRouter4.eth[0].mac packetReceivedFromUpper:vector(packetBytes) ETV
attr interpolationmode none
attr source packetReceivedFromUpper
attr title "packet bytes from higher layer, vector(packetBytes)"
vector 193 ExperimentNetwork1.connectRouter4.eth[0].mac.queue packetPushed:vector(packetBytes) ETV
attr interpolationmode none
attr title "packet pushed, vector(packetBytes)"
vector 194 ExperimentNetwork1.connectRouter4.eth[0].mac.queue queueLength:vector ETV
attr interpolationmode sample-hold
attr source "count(packetPushed) - count(packetPopped) - count(packetRemoved) - count(packetDropped)"
attr title "queue length, vector"
vector 195 ExperimentNetwork1.connectRouter4.eth[0].mac.queue packetPopped:vector(packetBytes) ETV
attr interpolationmode none
attr title "packet popped, vector(packetBytes)"
vector 196 ExperimentNetwork1.connectRouter4.eth[0].mac.queue queueingTime:vector ETV
attr interpolationmode none
attr source queueingTime(packetPopped)
attr title "queueing times, vector"
attr unit s
vector 197 ExperimentNetwork1.bot1[1].ipv4.arp arpRequestSent:vector(packetBytes) ETV
attr source arpRequestSent
attr title "ARP request sent, vector(packetBytes)"
vector 198 ExperimentNetwork1.bot1[1].eth[0].encap encapPk:vector(packetBytes) ETV
attr interpolationmode none
attr source encapPk
attr title "packets encapsulated, vector(packetBytes)"
vector 199 ExperimentNetwork1.bot1[1].eth[0].mac packetReceivedFromUpper:vector(packetBytes) ETV
attr interpolationmode none
attr source packetReceivedFromUpper
attr title "packet bytes from higher layer, vector(packetBytes)"
vector 200 ExperimentNetwork1.bot1[1].eth[0].mac.queue packetPushed:vector(packetBytes) ETV
attr interpolationmode none
attr title "packet pushed, vector(packetBytes)"
vector 201 ExperimentNetwork1.bot1[1].eth[0].mac.queue queueLength:vector ETV
attr interpolationmode sample-hold
attr source "count(packetPushed) - count(packetPopped) - count(packetRemoved) - count(packetDropped)"
attr title "queue length, vector"
vector 202 ExperimentNetwork1.bot1[1].eth[0].mac.queue packetPopped:vector(packetBytes) ETV
attr interpolationmode none
attr title "packet popped, vector(packetBytes)"
vector 203 ExperimentNetwork1.bot1[1].eth[0].mac.queue queueingTime:vector ETV
attr interpolationmode none
attr source queueingTime(packetPopped)
attr title "queueing times, vector"
attr unit s
vector 204 ExperimentNetwork1.bot1[0].ipv4.arp arpRequestSent:vector(packetBytes) ETV
attr source arpRequestSent
attr title "ARP request sent, vector(packetBytes)"
vector 205 ExperimentNetwork1.bot1[0].eth[0].encap encapPk:vector(packetBytes) ETV
attr interpolationmode none
attr source encapPk
attr title "packets encapsulated, vector(packetBytes)"
vector 206 ExperimentNetwork1.bot1[0].eth[0].mac packetReceivedFromUpper:vector(packetBytes) ETV
attr interpolationmode none
attr source packetReceivedFromUpper
attr title "packet bytes from higher layer, vector(packetBytes)"
vector 207 ExperimentNetwork1.bot1[0].eth[0].mac.queue packetPushed:vector(packetBytes) ETV
attr interpolationmode none
attr title "packet pushed, vector(packetBytes)"
vector 208 ExperimentNetwork1.bot1[0].eth[0].mac.queue queueLength:vector ETV
attr interpolationmode sample-hold
attr source "count(packetPushed) - count(packetPopped) - count(packetRemoved) - count(packetDropped)"
attr title "queue length, vector"
vector 209 ExperimentNetwork1.bot1[0].eth[0].mac.queue packetPopped:vector(packetBytes) ETV
attr interpolationmode none
attr title "packet popped, vector(packetBytes)"
vector 210 ExperimentNetwork1.bot1[0].eth[0].mac.queue queueingTime:vector ETV
attr interpolationmode none
attr source queueingTime(packetPopped)
attr title "queueing times, vector"
attr unit s
vector 211 ExperimentNetwork1.connectRouter3.eth[0].mac txPk:vector(packetBytes) ETV
attr interpolationmode none
attr source packetSentToLower
attr title "packets transmitted, vector(packetBytes)"
vector 212 ExperimentNetwork1.bot3[0].eth[0].mac rxPkOk:vector(packetBytes) ETV
attr interpolationmode none
attr source rxPkOk
attr title "packets received OK, vector(packetBytes)"
vector 213 ExperimentNetwork1.bot3[0].eth[0].mac passedUpPk:vector(packetBytes) ETV
attr interpolationmode none
attr source packetSentToUpper
attr title "packets passed to higher layer, vector(packetBytes)"
vector 214 ExperimentNetwork1.bot3[0].eth[0].encap decapPk:vector(packetBytes) ETV
attr interpolationmode none
attr source decapPk
attr title "packets decapsulated, vector(packetBytes)"
vector 215 ExperimentNetwork1.host4[0].eth[0].mac txPk:vector(packetBytes) ETV
attr interpolationmode none
attr source packetSentToLower
attr title "packets transmitted, vector(packetBytes)"
vector 216 ExperimentNetwork1.connectRouter4.eth[2].mac rxPkOk:vector(packetBytes) ETV
attr interpolationmode none
attr source rxPkOk
attr title "packets received OK, vector(packetBytes)"
vector 217 ExperimentNetwork1.connectRouter4.eth[2].mac passedUpPk:vector(packetBytes) ETV
attr interpolationmode none
attr source packetSentToUpper
attr title "packets passed to higher layer, vector(packetBytes)"
vector 218 ExperimentNetwork1.connectRouter4.eth[2].encap decapPk:vector(packetBytes) ETV
attr interpolationmode none
attr source decapPk
attr title "packets decapsulated, vector(packetBytes)"
vector 219 ExperimentNetwork1.connectRouter4.eth[2].encap encapPk:vector(packetBytes) ETV
attr interpolationmode none
attr source encapPk
attr title "packets encapsulated, vector(packetBytes)"
vector 220 ExperimentNetwork1.connectRouter4.eth[2].mac packetReceivedFromUpper:vector(packetBytes) ETV
attr interpolationmode none
attr source packetReceivedFromUpper
attr title "packet bytes from higher layer, vector(packetBytes)"
vector 221 ExperimentNetwork1.connectRouter4.eth[2].mac.queue packetPushed:vector(packetBytes) ETV
attr interpolationmode none
attr title "packet pushed, vector(packetBytes)"
vector 222 ExperimentNetwork1.connectRouter4.eth[2].mac.queue queueLength:vector ETV
attr interpolationmode sample-hold
attr source "count(packetPushed) - count(packetPopped) - count(packetRemoved) - count(packetDropped)"
attr title "queue length, vector"
vector 223 ExperimentNetwork1.connectRouter4.eth[2].mac.queue packetPopped:vector(packetBytes) ETV
attr interpolationmode none
attr title "packet popped, vector(packetBytes)"
vector 224 ExperimentNetwork1.connectRouter4.eth[2].mac.queue queueingTime:vector ETV
attr interpolationmode none
attr source queueingTime(packetPopped)
attr title "queueing times, vector"
attr unit s
vector 225 ExperimentNetwork1.host3[1].eth[0].mac txPk:vector(packetBytes) ETV
attr interpolationmode none
attr source packetSentToLower
attr title "packets transmitted, vector(packetBytes)"
vector 226 ExperimentNetwork1.connectRouter3.eth[3].mac rxPkOk:vector(packetBytes) ETV
attr interpolationmode none
attr source rxPkOk
attr title "packets received OK, vector(packetBytes)"
vector 227 ExperimentNetwork1.connectRouter3.eth[3].mac passedUpPk:vector(packetBytes) ETV
attr interpolationmode none
attr source packetSentToUpper
attr title "packets passed to higher layer, vector(packetBytes)"
vector 228 ExperimentNetwork1.connectRouter3.eth[3].encap decapPk:vector(packetBytes) ETV
attr interpolationmode none
attr source decapPk
attr title "packets decapsulated, vector(packetBytes)"
vector 229 ExperimentNetwork1.connectRouter3.eth[3].encap encapPk:vector(packetBytes) ETV
attr interpolationmode none
attr source encapPk
attr title "packets encapsulated, vector(packetBytes)"
vector 230 ExperimentNetwork1.connectRouter3.eth[3].mac packetReceivedFromUpper:vector(packetBytes) ETV
attr interpolationmode none
attr source packetReceivedFromUpper
attr title "packet bytes from higher layer, vector(packetBytes)"
vector 231 ExperimentNetwork1.connectRouter3.eth[3].mac.queue packetPushed:vector(packetBytes) ETV
attr interpolationmode none
attr title "packet pushed, vector(packetBytes)"
vector 232 ExperimentNetwork1.connectRouter3.eth[3].mac.queue queueLength:vector ETV
attr interpolationmode sample-hold
attr source "count(packetPushed) - count(packetPopped) - count(packetRemoved) - count(packetDropped)"
attr title "queue length, vector"
vector 233 ExperimentNetwork1.connectRouter3.eth[3].mac.queue packetPopped:vector(packetBytes) ETV
attr interpolationmode none
attr title "packet popped, vector(packetBytes)"
vector 234 ExperimentNetwork1.connectRouter3.eth[3].mac.queue queueingTime:vector ETV
attr interpolationmode none
attr source queueingTime(packetPopped)
attr title "queueing times, vector"
attr unit s
vector 235 ExperimentNetwork1.bot3[1].eth[0].mac txPk:vector(packetBytes) ETV
attr interpolationmode none
attr source packetSentToLower
attr title "packets transmitted, vector(packetBytes)"
vector 236 ExperimentNetwork1.connectRouter3.eth[1].mac rxPkOk:vector(packetBytes) ETV
attr interpolationmode none
attr source rxPkOk
attr title "packets received OK, vector(packetBytes)"
vector 237 ExperimentNetwork1.connectRouter3.eth[1].mac passedUpPk:vector(packetBytes) ETV
attr interpolationmode none
attr source packetSentToUpper
attr title "packets passed to higher layer, vector(packetBytes)"
vector 238 ExperimentNetwork1.connectRouter3.eth[1].encap decapPk:vector(packetBytes) ETV
attr interpolationmode none
attr source decapPk
attr title "packets decapsulated, vector(packetBytes)"
vector 239 ExperimentNetwork1.connectRouter3.eth[1].encap encapPk:vector(packetBytes) ETV
attr interpolationmode none
attr source encapPk
attr title "packets encapsulated, vector(packetBytes)"
vector 240 ExperimentNetwork1.connectRouter3.eth[1].mac packetReceivedFromUpper:vector(packetBytes) ETV
attr interpolationmode none
attr source packetReceivedFromUpper
attr title "packet bytes from higher layer, vector(packetBytes)"
vector 241 ExperimentNetwork1.connectRouter3.eth[1].mac.queue packetPushed:vector(packetBytes) ETV
attr interpolationmode none
attr title "packet pushed, vector(packetBytes)"
vector 242 ExperimentNetwork1.connectRouter3.eth[1].mac.queue queueLength:vector ETV
attr interpolationmode sample-hold
attr source "count(packetPushed) - count(packetPopped) - count(packetRemoved) - count(packetDropped)"
attr title "queue length, vector"
vector 243 ExperimentNetwork1.connectRouter3.eth[1].mac.queue packetPopped:vector(packetBytes) ETV
attr interpolationmode none
attr title "packet popped, vector(packetBytes)"
vector 244 ExperimentNetwork1.connectRouter3.eth[1].mac.queue queueingTime:vector ETV
attr interpolationmode none
attr source queueingTime(packetPopped)
attr title "queueing times, vector"
attr unit s
vector 245 ExperimentNetwork1.connectRouter2.eth[6].mac txPk:vector(packetBytes) ETV
attr interpolationmode none
attr source packetSentToLower
attr title "packets transmitted, vector(packetBytes)"
vector 246 ExperimentNetwork1.collectRouter2.eth[1].mac rxPkOk:vector(packetBytes) ETV
attr interpolationmode none
attr source rxPkOk
attr title "packets received OK, vector(packetBytes)"
vector 247 ExperimentNetwork1.collectRouter2.eth[1].mac passedUpPk:vector(packetBytes) ETV
attr interpolationmode none
attr source packetSentToUpper
attr title "packets passed to higher layer, vector(packetBytes)"
vector 248 ExperimentNetwork1.collectRouter2.eth[1].encap decapPk:vector(packetBytes) ETV
attr interpolationmode none
attr source decapPk
attr title "packets decapsulated, vector(packetBytes)"
vector 249 ExperimentNetwork1.collectRouter2.ipv4.arp arpReplySent:vector(packetBytes) ETV
attr source arpReplySent
attr title "ARP replies sent, vector(packetBytes)"
vector 250 ExperimentNetwork1.collectRouter2.eth[1].encap encapPk:vector(packetBytes) ETV
attr interpolationmode none
attr source encapPk
attr title "packets encapsulated, vector(packetBytes)"
vector 251 ExperimentNetwork1.collectRouter2.eth[1].mac packetReceivedFromUpper:vector(packetBytes) ETV
attr interpolationmode none
attr source packetReceivedFromUpper
attr title "packet bytes from higher layer, vector(packetBytes)"
vector 252 ExperimentNetwork1.collectRouter2.eth[1].mac.queue packetPushed:vector(packetBytes) ETV
attr interpolationmode none
attr title "packet pushed, vector(packetBytes)"
vector 253 ExperimentNetwork1.collectRouter2.eth[1].mac.queue queueLength:vector ETV
attr interpolationmode sample-hold
attr source "count(packetPushed) - count(packetPopped) - count(packetRemoved) - count(packetDropped)"
attr title "queue length, vector"
vector 254 ExperimentNetwork1.collectRouter2.eth[1].mac.queue packetPopped:vector(packetBytes) ETV
attr interpolationmode none
attr title "packet popped, vector(packetBytes)"
vector 255 ExperimentNetwork1.collectRouter2.eth[1].mac.queue queueingTime:vector ETV
attr interpolationmode none
attr source queueingTime(packetPopped)
attr title "queueing times, vector"
attr unit s
vector 256 ExperimentNetwork1.connectRouter1.eth[3].mac txPk:vector(packetBytes) ETV
attr interpolationmode none
attr source packetSentToLower
attr title "packets transmitted, vector(packetBytes)"
vector 257 ExperimentNetwork1.host1[1].eth[0].mac rxPkOk:vector(packetBytes) ETV
attr interpolationmode none
attr source rxPkOk
attr title "packets received OK, vector(packetBytes)"
vector 258 ExperimentNetwork1.host1[1].eth[0].mac passedUpPk:vector(packetBytes) ETV
attr interpolationmode none
attr source packetSentToUpper
attr title "packets passed to higher layer, vector(packetBytes)"
vector 259 ExperimentNetwork1.host1[1].eth[0].encap decapPk:vector(packetBytes) ETV
attr interpolationmode none
attr source decapPk
attr title "packets decapsulated, vector(packetBytes)"
vector 260 ExperimentNetwork1.host4[1].eth[0].mac txPk:vector(packetBytes) ETV
attr interpolationmode none
attr source packetSentToLower
attr title "packets transmitted, vector(packetBytes)"
vector 261 ExperimentNetwork1.connectRouter4.eth[3].mac rxPkOk:vector(packetBytes) ETV
attr interpolationmode none
attr source rxPkOk
attr title "packets received OK, vector(packetBytes)"
vector 262 ExperimentNetwork1.connectRouter4.eth[3].mac passedUpPk:vector(packetBytes) ETV
attr interpolationmode none
attr source packetSentToUpper
attr title "packets passed to higher layer, vector(packetBytes)"
vector 263 ExperimentNetwork1.connectRouter4.eth[3].encap decapPk:vector(packetBytes) ETV
attr interpolationmode none
attr source decapPk
attr title "packets decapsulated, vector(packetBytes)"
vector 264 ExperimentNetwork1.connectRouter4.eth[3].encap encapPk:vector(packetBytes) ETV
attr interpolationmode none
attr source encapPk
attr title "packets encapsulated, vector(packetBytes)"
vector 265 ExperimentNetwork1.connectRouter4.eth[3].mac packetReceivedFromUpper:vector(packetBytes) ETV
attr interpolationmode none
attr source packetReceivedFromUpper
attr title "packet bytes from higher layer, vector(packetBytes)"
vector 266 ExperimentNetwork1.connectRouter4.eth[3].mac.queue packetPushed:vector(packetBytes) ETV
attr interpolationmode none
attr title "packet pushed, vector(packetBytes)"
vector 267 ExperimentNetwork1.connectRouter4.eth[3].mac.queue queueLength:vector ETV
attr interpolationmode sample-hold
attr source "count(packetPushed) - count(packetPopped) - count(packetRemoved) - count(packetDropped)"
attr title "queue length, vector"
vector 268 ExperimentNetwork1.connectRouter4.eth[3].mac.queue packetPopped:vector(packetBytes) ETV
attr interpolationmode none
attr title "packet popped, vector(packetBytes)"
vector 269 ExperimentNetwork1.connectRouter4.eth[3].mac.queue queueingTime:vector ETV
attr interpolationmode none
attr source queueingTime(packetPopped)
attr title "queueing times, vector"
attr unit s
vector 270 ExperimentNetwork1.connectRouter2.eth[0].mac txPk:vector(packetBytes) ETV
attr interpolationmode none
attr source packetSentToLower
attr title "packets transmitted, vector(packetBytes)"
vector 271 ExperimentNetwork1.bot2[0].eth[0].mac rxPkOk:vector(packetBytes) ETV
attr interpolationmode none
attr source rxPkOk
attr title "packets received OK, vector(packetBytes)"
vector 272 ExperimentNetwork1.bot2[0].eth[0].mac passedUpPk:vector(packetBytes) ETV
attr interpolationmode none
attr source packetSentToUpper
attr title "packets passed to higher layer, vector(packetBytes)"
vector 273 ExperimentNetwork1.bot2[0].eth[0].encap decapPk:vector(packetBytes) ETV
attr interpolationmode none
attr source decapPk
attr title "packets decapsulated, vector(packetBytes)"
vector 274 ExperimentNetwork1.host4[3].app[0] pingTxSeq:vector ETV
attr interpolationmode none
attr title "ping tx seq, vector"
vector 275 ExperimentNetwork1.host4[3].ipv4.arp arpRequestSent:vector(packetBytes) ETV
attr source arpRequestSent
attr title "ARP request sent, vector(packetBytes)"
vector 276 ExperimentNetwork1.host4[3].eth[0].encap encapPk:vector(packetBytes) ETV
attr interpolationmode none
attr source encapPk
attr title "packets encapsulated, vector(packetBytes)"
vector 277 ExperimentNetwork1.host4[3].eth[0].mac packetReceivedFromUpper:vector(packetBytes) ETV
attr interpolationmode none
attr source packetReceivedFromUpper
attr title "packet bytes from higher layer, vector(packetBytes)"
vector 278 ExperimentNetwork1.host4[3].eth[0].mac.queue packetPushed:vector(packetBytes) ETV
attr interpolationmode none
attr title "packet pushed, vector(packetBytes)"
vector 279 ExperimentNetwork1.host4[3].eth[0].mac.queue queueLength:vector ETV
attr interpolationmode sample-hold
attr source "count(packetPushed) - count(packetPopped) - count(packetRemoved) - count(packetDropped)"
attr title "queue length, vector"
vector 280 ExperimentNetwork1.host4[3].eth[0].mac.queue packetPopped:vector(packetBytes) ETV
attr interpolationmode none
attr title "packet popped, vector(packetBytes)"
vector 281 ExperimentNetwork1.host4[3].eth[0].mac.queue queueingTime:vector ETV
attr interpolationmode none
attr source queueingTime(packetPopped)
attr title "queueing times, vector"
attr unit s
vector 282 ExperimentNetwork1.connectRouter4.eth[0].mac txPk:vector(packetBytes) ETV
attr interpolationmode none
attr source packetSentToLower
attr title "packets transmitted, vector(packetBytes)"
vector 283 ExperimentNetwork1.bot4[0].eth[0].mac rxPkOk:vector(packetBytes) ETV
attr interpolationmode none
attr source rxPkOk
attr title "packets received OK, vector(packetBytes)"
vector 284 ExperimentNetwork1.bot4[0].eth[0].mac passedUpPk:vector(packetBytes) ETV
attr interpolationmode none
attr source packetSentToUpper
attr title "packets passed to higher layer, vector(packetBytes)"
vector 285 ExperimentNetwork1.bot4[0].eth[0].encap decapPk:vector(packetBytes) ETV
attr interpolationmode none
attr source decapPk
attr title "packets decapsulated, vector(packetBytes)"
vector 286 ExperimentNetwork1.bot1[1].eth[0].mac txPk:vector(packetBytes) ETV
attr interpolationmode none
attr source packetSentToLower
attr title "packets transmitted, vector(packetBytes)"
vector 287 ExperimentNetwork1.connectRouter1.eth[1].mac rxPkOk:vector(packetBytes) ETV
attr interpolationmode none
attr source rxPkOk
attr title "packets received OK, vector(packetBytes)"
vector 288 ExperimentNetwork1.connectRouter1.eth[1].mac passedUpPk:vector(packetBytes) ETV
attr interpolationmode none
attr source packetSentToUpper
attr title "packets passed to higher layer, vector(packetBytes)"
vector 289 ExperimentNetwork1.connectRouter1.eth[1].encap decapPk:vector(packetBytes) ETV
attr interpolationmode none
attr source decapPk
attr title "packets decapsulated, vector(packetBytes)"
vector 290 ExperimentNetwork1.connectRouter1.eth[1].encap encapPk:vector(packetBytes) ETV
attr interpolationmode none
attr source encapPk
attr title "packets encapsulated, vector(packetBytes)"
vector 291 ExperimentNetwork1.connectRouter1.eth[1].mac packetReceivedFromUpper:vector(packetBytes) ETV
attr interpolationmode none
attr source packetReceivedFromUpper
attr title "packet bytes from higher layer, vector(packetBytes)"
vector 292 ExperimentNetwork1.connectRouter1.eth[1].mac.queue packetPushed:vector(packetBytes) ETV
attr interpolationmode none
attr title "packet pushed, vector(packetBytes)"
vector 293 ExperimentNetwork1.connectRouter1.eth[1].mac.queue queueLength:vector ETV
attr interpolationmode sample-hold
attr source "count(packetPushed) - count(packetPopped) - count(packetRemoved) - count(packetDropped)"
attr title "queue length, vector"
vector 294 ExperimentNetwork1.connectRouter1.eth[1].mac.queue packetPopped:vector(packetBytes) ETV
attr interpolationmode none
attr title "packet popped, vector(packetBytes)"
vector 295 ExperimentNetwork1.connectRouter1.eth[1].mac.queue queueingTime:vector ETV
attr interpolationmode none
attr source queueingTime(packetPopped)
attr title "queueing times, vector"
attr unit s
vector 296 ExperimentNetwork1.bot1[0].eth[0].mac txPk:vector(packetBytes) ETV
attr interpolationmode none
attr source packetSentToLower
attr title "packets transmitted, vector(packetBytes)"
vector 297 ExperimentNetwork1.connectRouter1.eth[0].mac rxPkOk:vector(packetBytes) ETV
attr interpolationmode none
attr source rxPkOk
attr title "packets received OK, vector(packetBytes)"
vector 298 ExperimentNetwork1.connectRouter1.eth[0].mac passedUpPk:vector(packetBytes) ETV
attr interpolationmode none
attr source packetSentToUpper
attr title "packets passed to higher layer, vector(packetBytes)"
vector 299 ExperimentNetwork1.connectRouter1.eth[0].encap decapPk:vector(packetBytes) ETV
attr interpolationmode none
attr source decapPk
attr title "packets decapsulated, vector(packetBytes)"
vector 300 ExperimentNetwork1.connectRouter1.eth[0].encap encapPk:vector(packetBytes) ETV
attr interpolationmode none
attr source encapPk
attr title "packets encapsulated, vector(packetBytes)"
vector 301 ExperimentNetwork1.connectRouter1.eth[0].mac packetReceivedFromUpper:vector(packetBytes) ETV
attr interpolationmode none
attr source packetReceivedFromUpper
attr title "packet bytes from higher layer, vector(packetBytes)"
vector 302 ExperimentNetwork1.connectRouter1.eth[0].mac.queue packetPushed:vector(packetBytes) ETV
attr interpolationmode none
attr title "packet pushed, vector(packetBytes)"
vector 303 ExperimentNetwork1.connectRouter1.eth[0].mac.queue queueLength:vector ETV
attr interpolationmode sample-hold
attr source "count(packetPushed) - count(packetPopped) - count(packetRemoved) - count(packetDropped)"
attr title "queue length, vector"
vector 304 ExperimentNetwork1.connectRouter1.eth[0].mac.queue packetPopped:vector(packetBytes) ETV
attr interpolationmode none
attr title "packet popped, vector(packetBytes)"
vector 305 ExperimentNetwork1.connectRouter1.eth[0].mac.queue queueingTime:vector ETV
attr interpolationmode none
attr source queueingTime(packetPopped)
attr title "queueing times, vector"
attr unit s
vector 306 ExperimentNetwork1.connectRouter3.ipv4.arp arpRequestSent:vector(packetBytes) ETV
attr source arpRequestSent
attr title "ARP request sent, vector(packetBytes)"
vector 307 ExperimentNetwork1.connectRouter3.eth[6].encap encapPk:vector(packetBytes) ETV
attr interpolationmode none
attr source encapPk
attr title "packets encapsulated, vector(packetBytes)"
vector 308 ExperimentNetwork1.connectRouter3.eth[6].mac packetReceivedFromUpper:vector(packetBytes) ETV
attr interpolationmode none
attr source packetReceivedFromUpper
attr title "packet bytes from higher layer, vector(packetBytes)"
vector 309 ExperimentNetwork1.connectRouter3.eth[6].mac.queue packetPushed:vector(packetBytes) ETV
attr interpolationmode none
attr title "packet pushed, vector(packetBytes)"
vector 310 ExperimentNetwork1.connectRouter3.eth[6].mac.queue queueLength:vector ETV
attr interpolationmode sample-hold
attr source "count(packetPushed) - count(packetPopped) - count(packetRemoved) - count(packetDropped)"
attr title "queue length, vector"
vector 311 ExperimentNetwork1.connectRouter3.eth[6].mac.queue packetPopped:vector(packetBytes) ETV
attr interpolationmode none
attr title "packet popped, vector(packetBytes)"
vector 312 ExperimentNetwork1.connectRouter3.eth[6].mac.queue queueingTime:vector ETV
attr interpolationmode none
attr source queueingTime(packetPopped)
attr title "queueing times, vector"
attr unit s
vector 313 ExperimentNetwork1.connectRouter4.eth[2].mac txPk:vector(packetBytes) ETV
attr interpolationmode none
attr source packetSentToLower
attr title "packets transmitted, vector(packetBytes)"
vector 314 ExperimentNetwork1.host4[0].eth[0].mac rxPkOk:vector(packetBytes) ETV
attr interpolationmode none
attr source rxPkOk
attr title "packets received OK, vector(packetBytes)"
vector 315 ExperimentNetwork1.host4[0].eth[0].mac passedUpPk:vector(packetBytes) ETV
attr interpolationmode none
attr source packetSentToUpper
attr title "packets passed to higher layer, vector(packetBytes)"
vector 316 ExperimentNetwork1.host4[0].eth[0].encap decapPk:vector(packetBytes) ETV
attr interpolationmode none
attr source decapPk
attr title "packets decapsulated, vector(packetBytes)"
vector 317 ExperimentNetwork1.connectRouter3.eth[3].mac txPk:vector(packetBytes) ETV
attr interpolationmode none
attr source packetSentToLower
attr title "packets transmitted, vector(packetBytes)"
vector 318 ExperimentNetwork1.host3[1].eth[0].mac rxPkOk:vector(packetBytes) ETV
attr interpolationmode none
attr source rxPkOk
attr title "packets received OK, vector(packetBytes)"
vector 319 ExperimentNetwork1.host3[1].eth[0].mac passedUpPk:vector(packetBytes) ETV
attr interpolationmode none
attr source packetSentToUpper
attr title "packets passed to higher layer, vector(packetBytes)"
vector 320 ExperimentNetwork1.host3[1].eth[0].encap decapPk:vector(packetBytes) ETV
attr interpolationmode none
attr source decapPk
attr title "packets decapsulated, vector(packetBytes)"
vector 321 ExperimentNetwork1.connectRouter3.eth[1].mac txPk:vector(packetBytes) ETV
attr interpolationmode none
attr source packetSentToLower
attr title "packets transmitted, vector(packetBytes)"
vector 322 ExperimentNetwork1.bot3[1].eth[0].mac rxPkOk:vector(packetBytes) ETV
attr interpolationmode none
attr source rxPkOk
attr title "packets received OK, vector(packetBytes)"
vector 323 ExperimentNetwork1.bot3[1].eth[0].mac passedUpPk:vector(packetBytes) ETV
attr interpolationmode none
attr source packetSentToUpper
attr title "packets passed to higher layer, vector(packetBytes)"
vector 324 ExperimentNetwork1.bot3[1].eth[0].encap decapPk:vector(packetBytes) ETV
attr interpolationmode none
attr source decapPk
attr title "packets decapsulated, vector(packetBytes)"
vector 325 ExperimentNetwork1.host2[0].app[0] pingTxSeq:vector ETV
attr interpolationmode none
attr title "ping tx seq, vector"
vector 326 ExperimentNetwork1.host2[0].ipv4.arp arpRequestSent:vector(packetBytes) ETV
attr source arpRequestSent
attr title "ARP request sent, vector(packetBytes)"
vector 327 ExperimentNetwork1.host2[0].eth[0].encap encapPk:vector(packetBytes) ETV
attr interpolationmode none
attr source encapPk
attr title "packets encapsulated, vector(packetBytes)"
vector 328 ExperimentNetwork1.host2[0].eth[0].mac packetReceivedFromUpper:vector(packetBytes) ETV
attr interpolationmode none
attr source packetReceivedFromUpper
attr title "packet bytes from higher layer, vector(packetBytes)"
vector 329 ExperimentNetwork1.host2[0].eth[0].mac.queue packetPushed:vector(packetBytes) ETV
attr interpolationmode none
attr title "packet pushed, vector(packetBytes)"
vector 330 ExperimentNetwork1.host2[0].eth[0].mac.queue queueLength:vector ETV
attr interpolationmode sample-hold
attr source "count(packetPushed) - count(packetPopped) - count(packetRemoved) - count(packetDropped)"
attr title "queue length, vector"
vector 331 ExperimentNetwork1.host2[0].eth[0].mac.queue packetPopped:vector(packetBytes) ETV
attr interpolationmode none
attr title "packet popped, vector(packetBytes)"
vector 332 ExperimentNetwork1.host2[0].eth[0].mac.queue queueingTime:vector ETV
attr interpolationmode none
attr source queueingTime(packetPopped)
attr title "queueing times, vector"
attr unit s
vector 333 ExperimentNetwork1.host4[2].app[0] pingTxSeq:vector ETV
attr interpolationmode none
attr title "ping tx seq, vector"
vector 334 ExperimentNetwork1.host4[2].ipv4.arp arpRequestSent:vector(packetBytes) ETV
attr source arpRequestSent
attr title "ARP request sent, vector(packetBytes)"
vector 335 ExperimentNetwork1.host4[2].eth[0].encap encapPk:vector(packetBytes) ETV
attr interpolationmode none
attr source encapPk
attr title "packets encapsulated, vector(packetBytes)"
vector 336 ExperimentNetwork1.host4[2].eth[0].mac packetReceivedFromUpper:vector(packetBytes) ETV
attr interpolationmode none
attr source packetReceivedFromUpper
attr title "packet bytes from higher layer, vector(packetBytes)"
vector 337 ExperimentNetwork1.host4[2].eth[0].mac.queue packetPushed:vector(packetBytes) ETV
attr interpolationmode none
attr title "packet pushed, vector(packetBytes)"
vector 338 ExperimentNetwork1.host4[2].eth[0].mac.queue queueLength:vector ETV
attr interpolationmode sample-hold
attr source "count(packetPushed) - count(packetPopped) - count(packetRemoved) - count(packetDropped)"
attr title "queue length, vector"
vector 339 ExperimentNetwork1.host4[2].eth[0].mac.queue packetPopped:vector(packetBytes) ETV
attr interpolationmode none
attr title "packet popped, vector(packetBytes)"
vector 340 ExperimentNetwork1.host4[2].eth[0].mac.queue queueingTime:vector ETV
attr interpolationmode none
attr source queueingTime(packetPopped)
attr title "queueing times, vector"
attr unit s
vector 341 ExperimentNetwork1.collectRouter2.eth[1].mac txPk:vector(packetBytes) ETV
attr interpolationmode none
attr source packetSentToLower
attr title "packets transmitted, vector(packetBytes)"
vector 342 ExperimentNetwork1.connectRouter2.eth[6].mac rxPkOk:vector(packetBytes) ETV
attr interpolationmode none
attr source rxPkOk
attr title "packets received OK, vector(packetBytes)"
vector 343 ExperimentNetwork1.connectRouter2.eth[6].mac passedUpPk:vector(packetBytes) ETV
attr interpolationmode none
attr source packetSentToUpper
attr title "packets passed to higher layer, vector(packetBytes)"
vector 344 ExperimentNetwork1.connectRouter2.eth[6].encap decapPk:vector(packetBytes) ETV
attr interpolationmode none
attr source decapPk
attr title "packets decapsulated, vector(packetBytes)"
vector 345 ExperimentNetwork1.host3[2].app[0] pingTxSeq:vector ETV
attr interpolationmode none
attr title "ping tx seq, vector"
vector 346 ExperimentNetwork1.host3[2].ipv4.arp arpRequestSent:vector(packetBytes) ETV
attr source arpRequestSent
attr title "ARP request sent, vector(packetBytes)"
vector 347 ExperimentNetwork1.host3[2].eth[0].encap encapPk:vector(packetBytes) ETV
attr interpolationmode none
attr source encapPk
attr title "packets encapsulated, vector(packetBytes)"
vector 348 ExperimentNetwork1.host3[2].eth[0].mac packetReceivedFromUpper:vector(packetBytes) ETV
attr interpolationmode none
attr source packetReceivedFromUpper
attr title "packet bytes from higher layer, vector(packetBytes)"
vector 349 ExperimentNetwork1.host3[2].eth[0].mac.queue packetPushed:vector(packetBytes) ETV
attr interpolationmode none
attr title "packet pushed, vector(packetBytes)"
vector 350 ExperimentNetwork1.host3[2].eth[0].mac.queue queueLength:vector ETV
attr interpolationmode sample-hold
attr source "count(packetPushed) - count(packetPopped) - count(packetRemoved) - count(packetDropped)"
attr title "queue length, vector"
vector 351 ExperimentNetwork1.host3[2].eth[0].mac.queue packetPopped:vector(packetBytes) ETV
attr interpolationmode none
attr title "packet popped, vector(packetBytes)"
vector 352 ExperimentNetwork1.host3[2].eth[0].mac.queue queueingTime:vector ETV
attr interpolationmode none
attr source queueingTime(packetPopped)
attr title "queueing times, vector"
attr unit s
vector 353 ExperimentNetwork1.host3[3].app[0] pingTxSeq:vector ETV
attr interpolationmode none
attr title "ping tx seq, vector"
vector 354 ExperimentNetwork1.host3[3].ipv4.arp arpRequestSent:vector(packetBytes) ETV
attr source arpRequestSent
attr title "ARP request sent, vector(packetBytes)"
vector 355 ExperimentNetwork1.host3[3].eth[0].encap encapPk:vector(packetBytes) ETV
attr interpolationmode none
attr source encapPk
attr title "packets encapsulated, vector(packetBytes)"
vector 356 ExperimentNetwork1.host3[3].eth[0].mac packetReceivedFromUpper:vector(packetBytes) ETV
attr interpolationmode none
attr source packetReceivedFromUpper
attr title "packet bytes from higher layer, vector(packetBytes)"
vector 357 ExperimentNetwork1.host3[3].eth[0].mac.queue packetPushed:vector(packetBytes) ETV
attr interpolationmode none
attr title "packet pushed, vector(packetBytes)"
vector 358 ExperimentNetwork1.host3[3].eth[0].mac.queue queueLength:vector ETV
attr interpolationmode sample-hold
attr source "count(packetPushed) - count(packetPopped) - count(packetRemoved) - count(packetDropped)"
attr title "queue length, vector"
vector 359 ExperimentNetwork1.host3[3].eth[0].mac.queue packetPopped:vector(packetBytes) ETV
attr interpolationmode none
attr title "packet popped, vector(packetBytes)"
vector 360 ExperimentNetwork1.host3[3].eth[0].mac.queue queueingTime:vector ETV
attr interpolationmode none
attr source queueingTime(packetPopped)
attr title "queueing times, vector"
attr unit s
vector 361 ExperimentNetwork1.connectRouter4.eth[3].mac txPk:vector(packetBytes) ETV
attr interpolationmode none
attr source packetSentToLower
attr title "packets transmitted, vector(packetBytes)"
vector 362 ExperimentNetwork1.host4[1].eth[0].mac rxPkOk:vector(packetBytes) ETV
attr interpolationmode none
attr source rxPkOk
attr title "packets received OK, vector(packetBytes)"
vector 363 ExperimentNetwork1.host4[1].eth[0].mac passedUpPk:vector(packetBytes) ETV
attr interpolationmode none
attr source packetSentToUpper
attr title "packets passed to higher layer, vector(packetBytes)"
vector 364 ExperimentNetwork1.host4[1].eth[0].encap decapPk:vector(packetBytes) ETV
attr interpolationmode none
attr source decapPk
attr title "packets decapsulated, vector(packetBytes)"
vector 365 ExperimentNetwork1.host4[3].eth[0].mac txPk:vector(packetBytes) ETV
attr interpolationmode none
attr source packetSentToLower
attr title "packets transmitted, vector(packetBytes)"
vector 366 ExperimentNetwork1.connectRouter4.eth[5].mac rxPkOk:vector(packetBytes) ETV
attr interpolationmode none
attr source rxPkOk
attr title "packets received OK, vector(packetBytes)"
vector 367 ExperimentNetwork1.connectRouter4.eth[5].mac passedUpPk:vector(packetBytes) ETV
attr interpolationmode none
attr source packetSentToUpper
attr title "packets passed to higher layer, vector(packetBytes)"
vector 368 ExperimentNetwork1.connectRouter4.eth[5].encap decapPk:vector(packetBytes) ETV
attr interpolationmode none
attr source decapPk
attr title "packets decapsulated, vector(packetBytes)"
vector 369 ExperimentNetwork1.connectRouter4.eth[5].encap encapPk:vector(packetBytes) ETV
attr interpolationmode none
attr source encapPk
attr title "packets encapsulated, vector(packetBytes)"
vector 370 ExperimentNetwork1.connectRouter4.eth[5].mac packetReceivedFromUpper:vector(packetBytes) ETV
attr interpolationmode none
attr source packetReceivedFromUpper
attr title "packet bytes from higher layer, vector(packetBytes)"
vector 371 ExperimentNetwork1.connectRouter4.eth[5].mac.queue packetPushed:vector(packetBytes) ETV
attr interpolationmode none
attr title "packet pushed, vector(packetBytes)"
vector 372 ExperimentNetwork1.connectRouter4.eth[5].mac.queue queueLength:vector ETV
attr interpolationmode sample-hold
attr source "count(packetPushed) - count(packetPopped) - count(packetRemoved) - count(packetDropped)"
attr title "queue length, vector"
vector 373 ExperimentNetwork1.connectRouter4.eth[5].mac.queue packetPopped:vector(packetBytes) ETV
attr interpolationmode none
attr title "packet popped, vector(packetBytes)"
vector 374 ExperimentNetwork1.connectRouter4.eth[5].mac.queue queueingTime:vector ETV
attr interpolationmode none
attr source queueingTime(packetPopped)
attr title "queueing times, vector"
attr unit s
vector 375 ExperimentNetwork1.connectRouter4.ipv4.arp arpRequestSent:vector(packetBytes) ETV
attr source arpRequestSent
attr title "ARP request sent, vector(packetBytes)"
vector 376 ExperimentNetwork1.connectRouter4.eth[6].encap encapPk:vector(packetBytes) ETV
attr interpolationmode none
attr source encapPk
attr title "packets encapsulated, vector(packetBytes)"
vector 377 ExperimentNetwork1.connectRouter4.eth[6].mac packetReceivedFromUpper:vector(packetBytes) ETV
attr interpolationmode none
attr source packetReceivedFromUpper
attr title "packet bytes from higher layer, vector(packetBytes)"
vector 378 ExperimentNetwork1.connectRouter4.eth[6].mac.queue packetPushed:vector(packetBytes) ETV
attr interpolationmode none
attr title "packet pushed, vector(packetBytes)"
vector 379 ExperimentNetwork1.connectRouter4.eth[6].mac.queue queueLength:vector ETV
attr interpolationmode sample-hold
attr source "count(packetPushed) - count(packetPopped) - count(packetRemoved) - count(packetDropped)"
attr title "queue length, vector"
vector 380 ExperimentNetwork1.connectRouter4.eth[6].mac.queue packetPopped:vector(packetBytes) ETV
attr interpolationmode none
attr title "packet popped, vector(packetBytes)"
vector 381 ExperimentNetwork1.connectRouter4.eth[6].mac.queue queueingTime:vector ETV
attr interpolationmode none
attr source queueingTime(packetPopped)
attr title "queueing times, vector"
attr unit s
vector 382 ExperimentNetwork1.host1[2].app[0] pingTxSeq:vector ETV
attr interpolationmode none
attr title "ping tx seq, vector"
vector 383 ExperimentNetwork1.host1[2].ipv4.arp arpRequestSent:vector(packetBytes) ETV
attr source arpRequestSent
attr title "ARP request sent, vector(packetBytes)"
vector 384 ExperimentNetwork1.host1[2].eth[0].encap encapPk:vector(packetBytes) ETV
attr interpolationmode none
attr source encapPk
attr title "packets encapsulated, vector(packetBytes)"
vector 385 ExperimentNetwork1.host1[2].eth[0].mac packetReceivedFromUpper:vector(packetBytes) ETV
attr interpolationmode none
attr source packetReceivedFromUpper
attr title "packet bytes from higher layer, vector(packetBytes)"
vector 386 ExperimentNetwork1.host1[2].eth[0].mac.queue packetPushed:vector(packetBytes) ETV
attr interpolationmode none
attr title "packet pushed, vector(packetBytes)"
vector 387 ExperimentNetwork1.host1[2].eth[0].mac.queue queueLength:vector ETV
attr interpolationmode sample-hold
attr source "count(packetPushed) - count(packetPopped) - count(packetRemoved) - count(packetDropped)"
attr title "queue length, vector"
[...]
612	1499	0.000067536252	58
612	1500	0.000067536252	58
612	1566	0.000069356252	58
612	1949	0.000079116252	102
612	2224	0.000085836252	58
612	2507	0.000092556252	58
612	2791	0.000099276252	58
612	3162	0.000109036252	102
612	3471	0.000115756252	58
612	3843	0.000125516252	102
613	1045	0.000055916252	64
613	1499	0.000067536252	64
613	1500	0.000067536252	64
613	1566	0.000069356252	64
613	1949	0.000079116252	102
613	2224	0.000085836252	64
613	2507	0.000092556252	64
613	2791	0.000099276252	64
613	3162	0.000109036252	102
613	3471	0.000115756252	64
613	3843	0.000125516252	102
614	1045	0.000055916252	1
614	1045	0.000055916252	0
614	1499	0.000067536252	1
614	1499	0.000067536252	0
614	1500	0.000067536252	1
614	1566	0.000069356252	2
614	1770	0.000074256252	1
614	1949	0.000079116252	2
614	2019	0.000080976252	1
614	2224	0.000085836252	2
614	2300	0.000087696252	1
614	2507	0.000092556252	2
614	2717	0.000097456252	1
614	2791	0.000099276252	2
614	2984	0.000104176252	1
614	3162	0.000109036252	2
614	3242	0.000110896252	1
614	3471	0.000115756252	2
614	3549	0.000117616252	1
614	3843	0.000125516252	2
614	3933	0.000127376252	1
615	1045	0.000055916252	64
615	1499	0.000067536252	64
615	1770	0.000074256252	64
615	2019	0.000080976252	64
615	2300	0.000087696252	102
615	2717	0.000097456252	64
615	2984	0.000104176252	64
615	3242	0.000110896252	64
615	3549	0.000117616252	102
615	3933	0.000127376252	64
616	1045	0.000055916252	0
616	1499	0.000067536252	0
616	1770	0.000074256252	6.72e-006
616	2019	0.000080976252	1.162e-005
616	2300	0.000087696252	8.58e-006
616	2717	0.000097456252	1.162e-005
616	2984	0.000104176252	1.162e-005
616	3242	0.000110896252	1.162e-005
616	3549	0.000117616252	8.58e-006
616	3933	0.000127376252	1.162e-005
617	1050	0.000056370486	64
618	1051	0.00005637349	64
619	1052	0.000056420486	64
620	1052	0.000056420486	64
621	1053	0.000056420486	46
622	1057	0.00005642349	64
623	1057	0.00005642349	64
624	1058	0.00005642349	46
625	1064	0.000056819661	64
625	2664	0.000095999661	102
625	2886	0.000102719661	64
625	3701	0.000122038519	102
625	4121	0.000131798519	102
626	1066	0.000056919661	64
626	2666	0.000096099661	102
626	2898	0.000102819661	64
626	3702	0.000122138519	102
626	4122	0.000131898519	102
627	1066	0.000056919661	64
627	2666	0.000096099661	102
627	2898	0.000102819661	64
627	3702	0.000122138519	102
627	4122	0.000131898519	102
628	1068	0.000056919661	46
628	2668	0.000096099661	84
628	2900	0.000102819661	46
628	3704	0.000122138519	84
628	4124	0.000131898519	84
629	1140	0.000058848519	64
629	2621	0.000095089661	102
629	3259	0.000111569661	102
630	1141	0.000058898519	64
630	2622	0.000095139661	102
630	3266	0.000111619661	102
631	1141	0.000058898519	64
631	2622	0.000095139661	102
631	3266	0.000111619661	102
632	1142	0.000058898519	46
632	2623	0.000095139661	84
632	3267	0.000111619661	84
633	1171	0.000059856206	64
634	1172	0.000059906206	64
635	1172	0.000059906206	64
636	1173	0.000059906206	46
637	1186	0.000060714734	64
637	2672	0.000096354322	102
637	2913	0.000103074322	64
637	3336	0.000112834322	102
637	3844	0.000125634322	102
638	1190	0.000060721392	28
639	1191	0.000060721392	28
639	1695	0.000072341392	40
639	1696	0.000072341392	84
639	2005	0.000080241392	84
639	2406	0.000090001392	84
639	2807	0.000099761392	84
639	3188	0.000109521392	84
639	3606	0.000119281392	84
639	4009	0.000129041392	84
640	1192	0.000060721392	46
640	1697	0.000072341392	58
640	1698	0.000072341392	102
640	2006	0.000080241392	102
640	2407	0.000090001392	102
640	2808	0.000099761392	102
640	3189	0.000109521392	102
640	3607	0.000119281392	102
640	4010	0.000129041392	102
641	1192	0.000060721392	64
641	1697	0.000072341392	64
641	1698	0.000072341392	102
641	2006	0.000080241392	102
641	2407	0.000090001392	102
641	2808	0.000099761392	102
641	3189	0.000109521392	102
641	3607	0.000119281392	102
641	4010	0.000129041392	102
642	1192	0.000060721392	1
642	1192	0.000060721392	0
642	1697	0.000072341392	1
642	1697	0.000072341392	0
642	1698	0.000072341392	1
642	1938	0.000079061392	0
642	2006	0.000080241392	1
642	2357	0.000088821392	0
642	2407	0.000090001392	1
642	2752	0.000098581392	0
642	2808	0.000099761392	1
642	3116	0.000108341392	0
642	3189	0.000109521392	1
642	3552	0.000118101392	0
642	3607	0.000119281392	1
642	3948	0.000127861392	0
642	4010	0.000129041392	1
643	1192	0.000060721392	64
643	1697	0.000072341392	64
643	1938	0.000079061392	102
643	2357	0.000088821392	102
643	2752	0.000098581392	102
643	3116	0.000108341392	102
643	3552	0.000118101392	102
643	3948	0.000127861392	102
644	1192	0.000060721392	0
644	1697	0.000072341392	0
644	1938	0.000079061392	6.72e-006
644	2357	0.000088821392	8.58e-006
644	2752	0.000098581392	8.58e-006
644	3116	0.000108341392	8.58e-006
644	3552	0.000118101392	8.58e-006
644	3948	0.000127861392	8.58e-006
645	1193	0.000060764734	64
645	2673	0.000096404322	102
645	2914	0.000103124322	64
645	3341	0.000112884322	102
645	3849	0.000125684322	102
646	1193	0.000060764734	64
646	2673	0.000096404322	102
646	2914	0.000103124322	64
646	3341	0.000112884322	102
646	3849	0.000125684322	102
647	1194	0.000060764734	46
647	2674	0.000096404322	84
647	2915	0.000103124322	46
647	3342	0.000112884322	84
647	3850	0.000125684322	84
648	1236	0.000061676252	64
648	1722	0.000073296252	64
648	1982	0.000080016252	64
648	2257	0.000086736252	64
648	2678	0.000096496252	102
648	2921	0.000103216252	64
648	3199	0.000109936252	64
648	3496	0.000116656252	64
648	3894	0.000126416252	102
649	1242	0.000061726252	64
649	1723	0.000073346252	64
649	1984	0.000080066252	64
649	2259	0.000086786252	64
649	2679	0.000096546252	102
649	2922	0.000103266252	64
649	3206	0.000109986252	64
649	3498	0.000116706252	64
649	3896	0.000126466252	102
650	1242	0.000061726252	64
650	1723	0.000073346252	64
650	1984	0.000080066252	64
650	2259	0.000086786252	64
650	2679	0.000096546252	102
650	2922	0.000103266252	64
650	3206	0.000109986252	64
650	3498	0.000116706252	64
650	3896	0.000126466252	102
651	1243	0.000061726252	46
651	1724	0.000073346252	46
651	1986	0.000080066252	46
651	2261	0.000086786252	46
651	2680	0.000096546252	84
651	2923	0.000103266252	46
651	3208	0.000109986252	46
651	3499	0.000116706252	46
651	3897	0.000126466252	84
652	1244	0.000061726252	28
652	1461	0.000066531392	28
653	1245	0.000061726252	28
653	1904	0.000078151392	40
653	3098	0.000107431392	84
653	3534	0.000117191392	84
653	3920	0.000126951392	84
654	1246	0.000061726252	46
654	1905	0.000078151392	58
654	3099	0.000107431392	102
654	3535	0.000117191392	102
654	3921	0.000126951392	102
655	1246	0.000061726252	64
655	1905	0.000078151392	64
655	3099	0.000107431392	102
655	3535	0.000117191392	102
655	3921	0.000126951392	102
656	1246	0.000061726252	1
656	1246	0.000061726252	0
656	1905	0.000078151392	1
656	1905	0.000078151392	0
656	3099	0.000107431392	1
656	3099	0.000107431392	0
656	3535	0.000117191392	1
656	3535	0.000117191392	0
656	3921	0.000126951392	1
656	3921	0.000126951392	0
657	1246	0.000061726252	64
657	1905	0.000078151392	64
657	3099	0.000107431392	102
657	3535	0.000117191392	102
657	3921	0.000126951392	102
658	1246	0.000061726252	0
658	1905	0.000078151392	0
658	3099	0.000107431392	0
658	3535	0.000117191392	0
658	3921	0.000126951392	0
659	1370	0.000064708519	28
660	1371	0.000064708519	28
660	1857	0.000076328519	40
660	2035	0.000081188519	40
660	2528	0.000093009661	40
660	2606	0.000094628519	40
660	3321	0.000112529661	84
660	3719	0.000122289661	84
660	3793	0.000123908519	84
660	4143	0.000132049661	84
661	1372	0.000064708519	46
661	1858	0.000076328519	58
661	2036	0.000081188519	58
661	2529	0.000093009661	58
661	2607	0.000094628519	58
661	3322	0.000112529661	102
661	3720	0.000122289661	102
661	3794	0.000123908519	102
661	4144	0.000132049661	102
662	1372	0.000064708519	64
662	1858	0.000076328519	64
662	2036	0.000081188519	64
662	2529	0.000093009661	64
662	2607	0.000094628519	64
662	3322	0.000112529661	102
662	3720	0.000122289661	102
662	3794	0.000123908519	102
662	4144	0.000132049661	102
663	1372	0.000064708519	1
663	1372	0.000064708519	0
663	1858	0.000076328519	1
663	1858	0.000076328519	0
663	2036	0.000081188519	1
663	2094	0.000083048519	0
663	2529	0.000093009661	1
663	2529	0.000093009661	0
663	2607	0.000094628519	1
663	2801	0.000099729661	0
663	3322	0.000112529661	1
663	3322	0.000112529661	0
663	3720	0.000122289661	1
663	3720	0.000122289661	0
663	3794	0.000123908519	1
663	4140	0.000132049661	0
663	4144	0.000132049661	1
664	1372	0.000064708519	64
664	1858	0.000076328519	64
664	2094	0.000083048519	64
664	2529	0.000093009661	64
664	2801	0.000099729661	64
664	3322	0.000112529661	102
664	3720	0.000122289661	102
664	4140	0.000132049661	102
665	1372	0.000064708519	0
665	1858	0.000076328519	0
665	2094	0.000083048519	1.86e-006
665	2529	0.000093009661	0
665	2801	0.000099729661	5.101142e-006
665	3322	0.000112529661	0
665	3720	0.000122289661	0
665	4140	0.000132049661	8.141142e-006
666	1435	0.000065819661	28
667	1436	0.000065819661	28
667	1884	0.000077439661	84
667	1885	0.000077439661	40
667	2080	0.000082299661	84
667	2484	0.000092059661	84
667	2850	0.000101819661	84
667	3264	0.000111579661	84
667	3670	0.000121339661	84
667	4101	0.000131099661	84
668	1437	0.000065819661	46
668	1886	0.000077439661	102
668	1887	0.000077439661	58
668	2081	0.000082299661	102
668	2485	0.000092059661	102
668	2851	0.000101819661	102
668	3265	0.000111579661	102
668	3671	0.000121339661	102
668	4102	0.000131099661	102
669	1437	0.000065819661	64
669	1886	0.000077439661	102
669	1887	0.000077439661	64
669	2081	0.000082299661	102
669	2485	0.000092059661	102
669	2851	0.000101819661	102
669	3265	0.000111579661	102
669	3671	0.000121339661	102
669	4102	0.000131099661	102
670	1437	0.000065819661	1
670	1437	0.000065819661	0
670	1886	0.000077439661	1
670	1886	0.000077439661	0
670	1887	0.000077439661	1
670	2081	0.000082299661	2
670	2284	0.000087199661	1
670	2485	0.000092059661	2
670	2573	0.000093919661	1
670	2851	0.000101819661	2
670	2945	0.000103679661	1
670	3265	0.000111579661	2
670	3356	0.000113439661	1
670	3671	0.000121339661	2
670	3748	0.000123199661	1
670	4102	0.000131099661	2
671	1437	0.000065819661	64
671	1886	0.000077439661	102
671	2284	0.000087199661	64
671	2573	0.000093919661	102
671	2945	0.000103679661	102
671	3356	0.000113439661	102
671	3748	0.000123199661	102
672	1437	0.000065819661	0
672	1886	0.000077439661	0
672	2284	0.000087199661	9.76e-006
672	2573	0.000093919661	1.162e-005
672	2945	0.000103679661	1.162e-005
672	3356	0.000113439661	1.162e-005
672	3748	0.000123199661	1.162e-005
673	1458	0.000066481392	64
673	1899	0.000078101392	64
673	2303	0.000087861392	102
673	2723	0.000097621392	102
673	3093	0.000107381392	102
673	3524	0.000117141392	102
673	3909	0.000126901392	102
674	1459	0.000066531392	64
674	1901	0.000078151392	64
674	2310	0.000087911392	102
674	2725	0.000097671392	102
674	3095	0.000107431392	102
674	3530	0.000117191392	102
674	3916	0.000126951392	102
675	1459	0.000066531392	64
675	1901	0.000078151392	64
675	2310	0.000087911392	102
675	2725	0.000097671392	102
675	3095	0.000107431392	102
675	3530	0.000117191392	102
675	3916	0.000126951392	102
676	1460	0.000066531392	46
676	1902	0.000078151392	46
676	2311	0.000087911392	84
676	2726	0.000097671392	84
676	3096	0.000107431392	84
676	3532	0.000117191392	84
676	3918	0.000126951392	84
677	1462	0.000066531392	28
677	1726	0.000073346252	40
677	1988	0.000080066252	40
677	2925	0.000103266252	40
677	3501	0.000116706252	40
678	1463	0.000066531392	46
678	1727	0.000073346252	58
678	1989	0.000080066252	58
678	2926	0.000103266252	58
678	3502	0.000116706252	58
679	1463	0.000066531392	64
679	1727	0.000073346252	64
679	1989	0.000080066252	64
679	2926	0.000103266252	64
679	3502	0.000116706252	64
680	1463	0.000066531392	1
680	1463	0.000066531392	0
680	1727	0.000073346252	1
680	1727	0.000073346252	0
680	1989	0.000080066252	1
680	1989	0.000080066252	0
680	2926	0.000103266252	1
680	2926	0.000103266252	0
680	3502	0.000116706252	1
680	3502	0.000116706252	0
681	1463	0.000066531392	64
681	1727	0.000073346252	64
681	1989	0.000080066252	64
681	2926	0.000103266252	64
681	3502	0.000116706252	64
682	1463	0.000066531392	0
682	1727	0.000073346252	0
682	1989	0.000080066252	0
682	2926	0.000103266252	0
682	3502	0.000116706252	0
683	1488	0.000067486252	64
683	2131	0.000083911392	64
683	3482	0.000116231392	102
683	3868	0.000125991392	102
684	1494	0.000067536252	64
684	2132	0.000083961392	64
684	3489	0.000116281392	102
684	3880	0.000126041392	102
685	1494	0.000067536252	64
685	2132	0.000083961392	64
685	3489	0.000116281392	102
685	3880	0.000126041392	102
686	1495	0.000067536252	46
686	2133	0.000083961392	46
686	3490	0.000116281392	84
686	3882	0.000126041392	84
687	1588	0.000070468519	64
687	2066	0.000082088519	64
687	2355	0.000088808519	64
687	2758	0.000098769661	64
687	3033	0.000105489661	64
687	3665	0.000121329661	102
687	4096	0.000131089661	102
688	1599	0.000070518519	64
688	2068	0.000082138519	64
688	2358	0.000088858519	64
688	2765	0.000098819661	64
688	3035	0.000105539661	64
688	3672	0.000121379661	102
688	4103	0.000131139661	102
689	1599	0.000070518519	64
689	2068	0.000082138519	64
689	2358	0.000088858519	64
689	2765	0.000098819661	64
689	3035	0.000105539661	64
689	3672	0.000121379661	102
689	4103	0.000131139661	102
690	1600	0.000070518519	46
690	2069	0.000082138519	46
690	2359	0.000088858519	46
690	2766	0.000098819661	46
690	3036	0.000105539661	46
690	3674	0.000121379661	84
690	4104	0.000131139661	84
691	1601	0.000070518519	28
691	2511	0.000092596252	28
692	1602	0.000070518519	28
693	1603	0.000070518519	46
694	1603	0.000070518519	64
695	1603	0.000070518519	1
695	1603	0.000070518519	0
696	1603	0.000070518519	64
697	1603	0.000070518519	0
698	1645	0.000071579661	64
698	2249	0.000086239661	102
698	2523	0.000092959661	64
698	2885	0.000102719661	102
698	3311	0.000112479661	102
698	3709	0.000122239661	102
698	4137	0.000131999661	102
699	1646	0.000071629661	64
699	2251	0.000086289661	102
699	2525	0.000093009661	64
699	2892	0.000102769661	102
699	3317	0.000112529661	102
699	3715	0.000122289661	102
699	4139	0.000132049661	102
700	1646	0.000071629661	64
700	2251	0.000086289661	102
700	2525	0.000093009661	64
700	2892	0.000102769661	102
700	3317	0.000112529661	102
700	3715	0.000122289661	102
700	4139	0.000132049661	102
701	1647	0.000071629661	46
701	2252	0.000086289661	84
701	2526	0.000093009661	46
701	2893	0.000102769661	84
701	3319	0.000112529661	84
701	3717	0.000122289661	84
701	4141	0.000132049661	84
702	1649	0.000071629661	28
702	1781	0.000074468519	84
702	2308	0.000087908519	40
702	2996	0.000104388519	84
702	3422	0.000114148519	84
703	1650	0.000071629661	46
703	1782	0.000074468519	102
703	2309	0.000087908519	58
703	2997	0.000104388519	102
703	3423	0.000114148519	102
704	1650	0.000071629661	64
704	1782	0.000074468519	102
704	2309	0.000087908519	64
704	2997	0.000104388519	102
704	3423	0.000114148519	102
705	1650	0.000071629661	1
705	1650	0.000071629661	0
705	1782	0.000074468519	1
705	1906	0.000078349661	0
705	2309	0.000087908519	1
705	2314	0.000088109661	0
705	2997	0.000104388519	1
705	2997	0.000104388519	0
705	3423	0.000114148519	1
705	3423	0.000114148519	0
706	1650	0.000071629661	64
706	1906	0.000078349661	102
706	2314	0.000088109661	64
706	2997	0.000104388519	102
706	3423	0.000114148519	102
707	1650	0.000071629661	0
707	1906	0.000078349661	3.881142e-006
707	2314	0.000088109661	2.01142e-007
707	2997	0.000104388519	0
707	3423	0.000114148519	0
708	1691	0.000072291392	64
708	1939	0.000079106252	64
708	2214	0.000085826252	64
708	3156	0.000109026252	64
708	3721	0.000122466252	64
709	1692	0.000072341392	64
709	1950	0.000079156252	64
709	2225	0.000085876252	64
709	3163	0.000109076252	64
709	3726	0.000122516252	64
710	1692	0.000072341392	64
710	1950	0.000079156252	64
710	2225	0.000085876252	64
710	3163	0.000109076252	64
710	3726	0.000122516252	64
711	1693	0.000072341392	46
711	1951	0.000079156252	46
711	2227	0.000085876252	46
711	3164	0.000109076252	46
711	3727	0.000122516252	46
712	1752	0.000073569661	0
712	2105	0.000083329661	1
712	2911	0.000102849661	2
712	4014	0.000129089661	3
713	1752	0.000073569661	6.2760925e-005
713	2105	0.000083329661	5.2520925e-005
713	2911	0.000102849661	5.2040925e-005
713	4014	0.000129089661	5.8280925e-005
714	1853	0.000076278519	64
715	1854	0.000076328519	64
716	1854	0.000076328519	64
717	1855	0.000076328519	46
718	1880	0.000077389661	64
718	2282	0.000087149661	102
718	2566	0.000093869661	64
718	3348	0.000113188519	102
718	3740	0.000122948519	102
719	1881	0.000077439661	64
719	2283	0.000087199661	102
719	2572	0.000093919661	64
719	3349	0.000113238519	102
719	3741	0.000122998519	102
720	1881	0.000077439661	64
720	2283	0.000087199661	102
720	2572	0.000093919661	64
720	3349	0.000113238519	102
720	3741	0.000122998519	102
721	1882	0.000077439661	46
721	2285	0.000087199661	84
721	2574	0.000093919661	46
721	3350	0.000113238519	84
721	3743	0.000122998519	84
722	2146	0.000084175181	0
722	2950	0.000103695181	1
723	2146	0.000084175181	4.702e-005
723	2950	0.000103695181	4.654e-005
724	2242	0.000085995181	0
724	2654	0.000095755181	1
725	2242	0.000085995181	5.7536006e-005
725	2654	0.000095755181	4.7296006e-005
726	2262	0.000086786252	28
727	2263	0.000086786252	28
727	2740	0.000098406252	40
727	2741	0.000098406252	84
727	2742	0.000098406252	84
727	2743	0.000098406252	84
727	3210	0.000109986252	40
727	3899	0.000126466252	84
728	2264	0.000086786252	46
728	2744	0.000098406252	58
728	2745	0.000098406252	102
728	2746	0.000098406252	102
728	2747	0.000098406252	102
728	3211	0.000109986252	58
728	3900	0.000126466252	102
729	2264	0.000086786252	64
729	2744	0.000098406252	64
729	2745	0.000098406252	102
729	2746	0.000098406252	102
729	2747	0.000098406252	102
729	3211	0.000109986252	64
729	3900	0.000126466252	102
730	2264	0.000086786252	1
730	2264	0.000086786252	0
730	2744	0.000098406252	1
730	2744	0.000098406252	0
730	2745	0.000098406252	1
730	2746	0.000098406252	2
730	2747	0.000098406252	3
730	3023	0.000105126252	2
730	3211	0.000109986252	3
730	3433	0.000114886252	2
730	3804	0.000124646252	1
730	3900	0.000126466252	2
731	2264	0.000086786252	64
731	2744	0.000098406252	64
731	3023	0.000105126252	102
731	3433	0.000114886252	102
731	3804	0.000124646252	102
732	2264	0.000086786252	0
732	2744	0.000098406252	0
732	3023	0.000105126252	6.72e-006
732	3433	0.000114886252	1.648e-005
732	3804	0.000124646252	2.624e-005
733	2318	0.00008814627	0
733	3108	0.00010766627	1
733	3931	0.00012718627	2
734	2318	0.00008814627	4.702e-005
734	3108	0.00010766627	4.654e-005
734	3931	0.00012718627	4.606e-005
735	2501	0.000092546252	64
735	2983	0.000104166252	64
735	3409	0.000113926252	102
735	3772	0.000123686252	102
736	2508	0.000092596252	64
736	2985	0.000104216252	64
736	3410	0.000113976252	102
736	3777	0.000123736252	102
737	2508	0.000092596252	64
737	2985	0.000104216252	64
737	3410	0.000113976252	102
737	3777	0.000123736252	102
738	2510	0.000092596252	46
738	2986	0.000104216252	46
738	3411	0.000113976252	84
738	3778	0.000123736252	84
739	2512	0.000092596252	28
740	2513	0.000092596252	46
741	2513	0.000092596252	64
742	2513	0.000092596252	1
742	2513	0.000092596252	0
743	2513	0.000092596252	64
744	2513	0.000092596252	0
745	2676	0.000096404322	0
745	3344	0.000112884322	1
745	3852	0.000125684322	2
746	2676	0.000096404322	4.7259588e-005
746	3344	0.000112884322	4.3739588e-005
746	3852	0.000125684322	3.6539588e-005
747	2736	0.000098356252	64
748	2737	0.000098406252	64
749	2737	0.000098406252	64
750	2738	0.000098406252	46

