                                                                
version 2
run PCE_Environment-0-20200924-15:05:38-5684
attr configname PCE_Environment
attr datetime 20200924-15:05:38
attr experiment PCE_Environment
attr inifile experiment.ini
attr iterationvars ""
attr iterationvarsf ""
attr measurement ""
attr network PCE_Environment
attr processid 5684
attr repetition 0
attr replication #0
attr resultdir results
attr runnumber 0
attr seedset 0
param **.visualizer.*.interfaceTableVisualizer.nodeFilter "\"not (*Switch* accessPoint)\""
param **.visualizer.*.packetDropVisualizer.displayPacketDrops true
param **.visualizer.*.packetDropVisualizer.labelFormat "\"%n/reason: %r\""
param **.visualizer.*.packetDropVisualizer.fadeOutTime 3s
param **.visualizer.*.networkRouteVisualizer.displayRoutes true
param **.visualizer.*.networkRouteVisualizer.packetFilter "\"*Flood\""
param **.visualizer.*.networkRouteVisualizer.fadeOutTime 2s
param **.ddosBot*.numPktGen 4
param **.ddosBot*.pg[*].localPort 1234
param **.ddosBot*.pg[*].destPort 1234
param **.ddosBot*.pg[*].startTime "2s+uniform(0.01ms, 0.05ms)"
param **.ddosBot*.pg[*].sendInterval 0.01ms
param **.ddosBot*.pg[0].packetType "\"UDP\""
param **.ddosBot*.pg[0].packetName "\"UDPFlood\""
param **.ddosBot*.pg[1].packetType "\"TCP_SYN\""
param **.ddosBot*.pg[1].packetName "\"SYNFlood\""
param **.ddosBot*.pg[2].packetType "\"TCP_SYNACK\""
param **.ddosBot*.pg[2].packetName "\"SYNACKFlood\""
param **.ddosBot*.pg[3].packetType "\"TCP_ACK\""
param **.ddosBot*.pg[3].packetName "\"ACKFlood\""
param **.ddosBot1.pg[*].destAddr "\"wirelessHost\""
param **.ddosBot2.pg[*].destAddr "\"mobileHost\""
param **.*Hos*.numApps 1
param **.*Hos*.app[*].typename "\"PingApp\""
param **.*Hos*.app[*].sendInterval 0.02ms
param **.*Hos*.app[*].startTime "2s+uniform(0.01ms, 0.05ms)"
param **.cloudServer*.numApps 1
param **.cloudServer*.app[*].typename "\"PingApp\""
param **.cloudServer*.app[*].sendInterval 0.08ms
param **.cloudServer*.app[*].startTime "2s+uniform(0.01ms, 0.05ms)"
param **.standardHost1.app[*].destAddr "\"wirelessHost\""
param **.standardHost2.app[*].destAddr "\"mobileHost\""
param **.standardHost3.app[*].destAddr "\"cloudServer1\""
param **.standardHost4.app[*].destAddr "\"cloudServer2\""
param **.cloudServer1.app[*].destAddr "\"wirelessHost\""
param **.cloudServer2.app[*].destAddr "\"mobileHost\""
param **.cloudServer3.app[*].destAddr "\"standardHost1\""
param **.cloudServer4.app[*].destAddr "\"standardHost2\""
param **.cloudServer5.app[*].destAddr "\"standardHost3\""
param **.cloudServer6.app[*].destAddr "\"standardHost4\""
param **.router*.eth[*].mac.queue.typename "\"EtherQosQueue\""
param **.router*.eth[*].mac.queue.dataQueue.typename "\"DropTailQueue\""
param **.router*.**.queue.packetCapacity 10
param **.visualizer.*.interfaceTableVisualizer.displayInterfaceTables true

vector 0 PCE_Environment.accessPoint.wlan[0].radio radioMode:vector ETV
attr interpolationmode sample-hold
attr source radioModeChanged
attr title "Radio mode, vector"
vector 1 PCE_Environment.accessPoint.wlan[0].radio radioChannel:vector ETV
attr interpolationmode sample-hold
attr source radioChannelChanged
attr title "Radio channel, vector"
vector 2 PCE_Environment.mobileHost.wlan[0].radio radioMode:vector ETV
attr interpolationmode sample-hold
attr source radioModeChanged
attr title "Radio mode, vector"
vector 3 PCE_Environment.mobileHost.wlan[0].radio radioChannel:vector ETV
attr interpolationmode sample-hold
attr source radioChannelChanged
attr title "Radio channel, vector"
vector 4 PCE_Environment.wirelessHost.wlan[0].radio radioMode:vector ETV
attr interpolationmode sample-hold
attr source radioModeChanged
attr title "Radio mode, vector"
vector 5 PCE_Environment.wirelessHost.wlan[0].radio radioChannel:vector ETV
attr interpolationmode sample-hold
attr source radioChannelChanged
attr title "Radio channel, vector"
vector 6 PCE_Environment.accessPoint.wlan[0].radio receptionState:vector ETV
attr interpolationmode sample-hold
attr source receptionStateChanged
attr title "Radio reception state, vector"
vector 7 PCE_Environment.mobileHost.wlan[0].radio receptionState:vector ETV
attr interpolationmode sample-hold
attr source receptionStateChanged
attr title "Radio reception state, vector"
vector 8 PCE_Environment.wirelessHost.wlan[0].radio receptionState:vector ETV
attr interpolationmode sample-hold
attr source receptionStateChanged
attr title "Radio reception state, vector"
vector 9 PCE_Environment.accessPoint.wlan[0].mac.dcf.recoveryProcedure contentionWindowChanged:vector ETV
attr interpolationmode sample-hold
attr title "contention window, vector"
vector 10 PCE_Environment.mobileHost.wlan[0].mac.dcf.recoveryProcedure contentionWindowChanged:vector ETV
attr interpolationmode sample-hold
attr title "contention window, vector"
vector 11 PCE_Environment.wirelessHost.wlan[0].mac.dcf.recoveryProcedure contentionWindowChanged:vector ETV
attr interpolationmode sample-hold
attr title "contention window, vector"
vector 12 PCE_Environment.wirelessHost.wlan[0].agent sentRequest:vector ETV
attr title "sent requests, vector"
vector 13 PCE_Environment.accessPoint.wlan[0].mac.dcf.channelAccess.pendingQueue packetPushed:vector(packetBytes) ETV
attr interpolationmode none
attr title "packet pushed, vector(packetBytes)"
vector 14 PCE_Environment.accessPoint.wlan[0].mac.dcf.channelAccess.pendingQueue queueLength:vector ETV
attr interpolationmode sample-hold
attr source "count(packetPushed) - count(packetPopped) - count(packetRemoved) - count(packetDropped)"
attr title "queue length, vector"
vector 15 PCE_Environment.accessPoint.wlan[0].mac.dcf.channelAccess.contention backoffPeriodGenerated:vector ETV
attr interpolationmode none
attr title "backoff periods, vector"
vector 16 PCE_Environment.accessPoint.wlan[0].mac.dcf.channelAccess.contention backoffActive:vector ETV
attr interpolationmode sample-hold
attr source count(backoffStarted)-count(backoffStopped)
attr title "backoff active, vector"
vector 17 PCE_Environment.accessPoint.wlan[0].mac.dcf.channelAccess.pendingQueue packetPopped:vector(packetBytes) ETV
attr interpolationmode none
attr title "packet popped, vector(packetBytes)"
vector 18 PCE_Environment.accessPoint.wlan[0].mac.dcf.channelAccess.pendingQueue queueingTime:vector ETV
attr interpolationmode none
attr source queueingTime(packetPopped)
attr title "queueing times, vector"
attr unit s
vector 19 PCE_Environment.accessPoint.wlan[0].mac.dcf.channelAccess.inProgressFrames queueLength:vector ETV
attr interpolationmode sample-hold
attr source "count(packetEnqueued) - count(packetDequeued)"
attr title "queue length, vector"
vector 20 PCE_Environment.accessPoint.wlan[0].mac.dcf datarateSelected:vector ETV
attr interpolationmode none
attr title "datarates selected, vector"
vector 21 PCE_Environment.accessPoint.wlan[0].mac packetSentToLower:vector(packetBytes) ETV
attr interpolationmode none
attr title "packets sent to lower layer, vector(packetBytes)"
vector 22 PCE_Environment.accessPoint.wlan[0].mac.dcf frameSequenceActive:vector ETV
attr interpolationmode sample-hold
attr source count(frameSequenceStarted)-count(frameSequenceFinished)
attr title "frame sequence active, vector"
vector 23 PCE_Environment.accessPoint.wlan[0].radio transmissionState:vector ETV
attr interpolationmode sample-hold
attr source transmissionStateChanged
attr title "Radio transmission state, vector"
vector 24 PCE_Environment.accessPoint.wlan[0].mac.dcf packetSentToPeer:vector(packetBytes) ETV
attr interpolationmode none
attr title "packets sent, vector(packetBytes)"
vector 25 PCE_Environment.accessPoint.wlan[0].mac.dcf packetSentToPeerMulticast:vector(packetBytes) ETV
attr interpolationmode none
attr source ieee80211Multicast(packetSentToPeer)
attr title "packets sent: multicast, vector(packetBytes)"
vector 26 PCE_Environment.accessPoint.wlan[0].mac.dcf packetSentToPeerBroadcast:vector(packetBytes) ETV
attr interpolationmode none
attr source ieee80211Broadcast(packetSentToPeer)
attr title "packets sent: broadcast , vector(packetBytes)"
vector 27 PCE_Environment.accessPoint.wlan[0].mac.dcf packetSentToPeerWithoutRetry:vector(packetBytes) ETV
attr interpolationmode none
attr source ieee80211NotRetry(packetSentToPeer)
attr title "packets sent: without retry, vector(packetBytes)"
vector 28 PCE_Environment.accessPoint.wlan[0].mac.dcf.channelAccess.inProgressFrames queueingTime:vector ETV
attr interpolationmode none
attr source queueingTime(packetDequeued)
attr title "queueing times, vector"
vector 29 PCE_Environment.mobileHost.wlan[0].mac packetReceivedFromLower:vector(packetBytes) ETV
attr interpolationmode none
attr title "packets received from lower layer, vector(packetBytes)"
vector 30 PCE_Environment.mobileHost.wlan[0].mac.dcf packetReceivedFromPeer:vector(packetBytes) ETV
attr interpolationmode none
attr title "packets received, vector(packetBytes)"
vector 31 PCE_Environment.mobileHost.wlan[0].mac.dcf packetReceivedFromPeerMulticast:vector(packetBytes) ETV
attr interpolationmode none
attr source ieee80211Multicast(packetReceivedFromPeer)
attr title "packets received: multicast, vector(packetBytes)"
vector 32 PCE_Environment.mobileHost.wlan[0].mac.dcf packetReceivedFromPeerBroadcast:vector(packetBytes) ETV
attr interpolationmode none
attr source ieee80211Broadcast(packetReceivedFromPeer)
attr title "packets received: broadcast, vector(packetBytes)"
vector 33 PCE_Environment.mobileHost.wlan[0].mac.dcf packetReceivedFromPeerWithoutRetry:vector(packetBytes) ETV
attr interpolationmode none
attr source ieee80211NotRetry(packetReceivedFromPeer)
attr title "packets received: without retry, vector(packetBytes)"
vector 34 PCE_Environment.wirelessHost.wlan[0].mac packetReceivedFromLower:vector(packetBytes) ETV
attr interpolationmode none
attr title "packets received from lower layer, vector(packetBytes)"
vector 35 PCE_Environment.wirelessHost.wlan[0].mac.dcf packetReceivedFromPeer:vector(packetBytes) ETV
attr interpolationmode none
attr title "packets received, vector(packetBytes)"
vector 36 PCE_Environment.wirelessHost.wlan[0].mac.dcf packetReceivedFromPeerMulticast:vector(packetBytes) ETV
attr interpolationmode none
attr source ieee80211Multicast(packetReceivedFromPeer)
attr title "packets received: multicast, vector(packetBytes)"
vector 37 PCE_Environment.wirelessHost.wlan[0].mac.dcf packetReceivedFromPeerBroadcast:vector(packetBytes) ETV
attr interpolationmode none
attr source ieee80211Broadcast(packetReceivedFromPeer)
attr title "packets received: broadcast, vector(packetBytes)"
vector 38 PCE_Environment.wirelessHost.wlan[0].mac.dcf packetReceivedFromPeerWithoutRetry:vector(packetBytes) ETV
attr interpolationmode none
attr source ieee80211NotRetry(packetReceivedFromPeer)
attr title "packets received: without retry, vector(packetBytes)"
vector 39 PCE_Environment.mobileHost.wlan[0].agent sentRequest:vector ETV
attr title "sent requests, vector"
vector 40 PCE_Environment.wirelessHost.wlan[0].mac.dcf.channelAccess.pendingQueue packetPushed:vector(packetBytes) ETV
attr interpolationmode none
attr title "packet pushed, vector(packetBytes)"
vector 41 PCE_Environment.wirelessHost.wlan[0].mac.dcf.channelAccess.pendingQueue queueLength:vector ETV
attr interpolationmode sample-hold
attr source "count(packetPushed) - count(packetPopped) - count(packetRemoved) - count(packetDropped)"
attr title "queue length, vector"
vector 42 PCE_Environment.wirelessHost.wlan[0].mac.dcf.channelAccess.contention backoffPeriodGenerated:vector ETV
attr interpolationmode none
attr title "backoff periods, vector"
vector 43 PCE_Environment.wirelessHost.wlan[0].mac.dcf.channelAccess.contention backoffActive:vector ETV
attr interpolationmode sample-hold
attr source count(backoffStarted)-count(backoffStopped)
attr title "backoff active, vector"
vector 44 PCE_Environment.wirelessHost.wlan[0].mac.dcf.channelAccess.pendingQueue packetPopped:vector(packetBytes) ETV
attr interpolationmode none
attr title "packet popped, vector(packetBytes)"
vector 45 PCE_Environment.wirelessHost.wlan[0].mac.dcf.channelAccess.pendingQueue queueingTime:vector ETV
attr interpolationmode none
attr source queueingTime(packetPopped)
attr title "queueing times, vector"
attr unit s
vector 46 PCE_Environment.wirelessHost.wlan[0].mac.dcf.channelAccess.inProgressFrames queueLength:vector ETV
attr interpolationmode sample-hold
attr source "count(packetEnqueued) - count(packetDequeued)"
attr title "queue length, vector"
vector 47 PCE_Environment.wirelessHost.wlan[0].mac.dcf datarateSelected:vector ETV
attr interpolationmode none
attr title "datarates selected, vector"
vector 48 PCE_Environment.wirelessHost.wlan[0].mac packetSentToLower:vector(packetBytes) ETV
attr interpolationmode none
attr title "packets sent to lower layer, vector(packetBytes)"
vector 49 PCE_Environment.wirelessHost.wlan[0].mac.dcf frameSequenceActive:vector ETV
attr interpolationmode sample-hold
attr source count(frameSequenceStarted)-count(frameSequenceFinished)
attr title "frame sequence active, vector"
vector 50 PCE_Environment.wirelessHost.wlan[0].radio transmissionState:vector ETV
attr interpolationmode sample-hold
attr source transmissionStateChanged
attr title "Radio transmission state, vector"
vector 51 PCE_Environment.wirelessHost.wlan[0].mac.dcf packetSentToPeer:vector(packetBytes) ETV
attr interpolationmode none
attr title "packets sent, vector(packetBytes)"
vector 52 PCE_Environment.wirelessHost.wlan[0].mac.dcf packetSentToPeerMulticast:vector(packetBytes) ETV
attr interpolationmode none
attr source ieee80211Multicast(packetSentToPeer)
attr title "packets sent: multicast, vector(packetBytes)"
vector 53 PCE_Environment.wirelessHost.wlan[0].mac.dcf packetSentToPeerBroadcast:vector(packetBytes) ETV
attr interpolationmode none
attr source ieee80211Broadcast(packetSentToPeer)
attr title "packets sent: broadcast , vector(packetBytes)"
vector 54 PCE_Environment.wirelessHost.wlan[0].mac.dcf packetSentToPeerWithoutRetry:vector(packetBytes) ETV
attr interpolationmode none
attr source ieee80211NotRetry(packetSentToPeer)
attr title "packets sent: without retry, vector(packetBytes)"
vector 55 PCE_Environment.wirelessHost.wlan[0].mac.dcf.channelAccess.inProgressFrames queueingTime:vector ETV
attr interpolationmode none
attr source queueingTime(packetDequeued)
attr title "queueing times, vector"
vector 56 PCE_Environment.accessPoint.wlan[0].mac packetReceivedFromLower:vector(packetBytes) ETV
attr interpolationmode none
attr title "packets received from lower layer, vector(packetBytes)"
vector 57 PCE_Environment.accessPoint.wlan[0].mac.dcf packetReceivedFromPeer:vector(packetBytes) ETV
attr interpolationmode none
attr title "packets received, vector(packetBytes)"
vector 58 PCE_Environment.accessPoint.wlan[0].mac.dcf packetReceivedFromPeerMulticast:vector(packetBytes) ETV
attr interpolationmode none
attr source ieee80211Multicast(packetReceivedFromPeer)
attr title "packets received: multicast, vector(packetBytes)"
vector 59 PCE_Environment.accessPoint.wlan[0].mac.dcf packetReceivedFromPeerBroadcast:vector(packetBytes) ETV
attr interpolationmode none
attr source ieee80211Broadcast(packetReceivedFromPeer)
attr title "packets received: broadcast, vector(packetBytes)"
vector 60 PCE_Environment.accessPoint.wlan[0].mac.dcf packetReceivedFromPeerWithoutRetry:vector(packetBytes) ETV
attr interpolationmode none
attr source ieee80211NotRetry(packetReceivedFromPeer)
attr title "packets received: without retry, vector(packetBytes)"
vector 61 PCE_Environment.accessPoint.wlan[0].mac.dcf packetSentToPeerUnicast:vector(packetBytes) ETV
attr interpolationmode none
attr source ieee80211Unicast(packetSentToPeer)
attr title "packets sent: unicast, vector(packetBytes)"
vector 62 PCE_Environment.accessPoint.wlan[0].mac.rx nav:vector ETV
attr interpolationmode linear
attr source navChanged
attr title "network allocation vector, vector"
vector 63 PCE_Environment.mobileHost.wlan[0].mac.rx nav:vector ETV
attr interpolationmode linear
attr source navChanged
attr title "network allocation vector, vector"
vector 64 PCE_Environment.mobileHost.wlan[0].mac.dcf packetDrop:vector(packetBytes) ETV
attr interpolationmode none
attr source packetDropped
attr title "packet drops, vector(packetBytes)"
vector 65 PCE_Environment.mobileHost.wlan[0].mac.dcf packetDropNotAddressedToUs:vector(packetBytes) ETV
attr interpolationmode none
attr source packetDropReasonIsNotAddressedToUs(packetDropped)
attr title "packet drops: not addressed to us, vector(packetBytes)"
vector 66 PCE_Environment.mobileHost.wlan[0].mac packetDrop:vector(packetBytes) ETV
attr interpolationmode none
attr source packetDropped
attr title "packet drops, vector(packetBytes)"
vector 67 PCE_Environment.mobileHost.wlan[0].mac packetDropNotAddressedToUs:vector(packetBytes) ETV
attr interpolationmode none
attr source packetDropReasonIsNotAddressedToUs(packetDropped)
attr title "packet drops: not addressed to us, vector(packetBytes)"
vector 68 PCE_Environment.wirelessHost.wlan[0].mac.dcf packetReceivedFromPeerUnicast:vector(packetBytes) ETV
attr interpolationmode none
attr source ieee80211Unicast(packetReceivedFromPeer)
attr title "packets received: unicast, vector(packetBytes)"
vector 69 PCE_Environment.wirelessHost.wlan[0].mac.dcf packetSentToPeerUnicast:vector(packetBytes) ETV
attr interpolationmode none
attr source ieee80211Unicast(packetSentToPeer)
attr title "packets sent: unicast, vector(packetBytes)"
vector 70 PCE_Environment.accessPoint.wlan[0].mac.dcf packetReceivedFromPeerUnicast:vector(packetBytes) ETV
attr interpolationmode none
attr source ieee80211Unicast(packetReceivedFromPeer)
attr title "packets received: unicast, vector(packetBytes)"
vector 71 PCE_Environment.mobileHost.wlan[0].mac.dcf.channelAccess.pendingQueue packetPushed:vector(packetBytes) ETV
attr interpolationmode none
attr title "packet pushed, vector(packetBytes)"
vector 72 PCE_Environment.mobileHost.wlan[0].mac.dcf.channelAccess.pendingQueue queueLength:vector ETV
attr interpolationmode sample-hold
attr source "count(packetPushed) - count(packetPopped) - count(packetRemoved) - count(packetDropped)"
attr title "queue length, vector"
vector 73 PCE_Environment.mobileHost.wlan[0].mac.dcf.channelAccess.contention backoffPeriodGenerated:vector ETV
attr interpolationmode none
attr title "backoff periods, vector"
vector 74 PCE_Environment.mobileHost.wlan[0].mac.dcf.channelAccess.contention backoffActive:vector ETV
attr interpolationmode sample-hold
attr source count(backoffStarted)-count(backoffStopped)
attr title "backoff active, vector"
vector 75 PCE_Environment.mobileHost.wlan[0].mac.dcf.channelAccess.pendingQueue packetPopped:vector(packetBytes) ETV
attr interpolationmode none
attr title "packet popped, vector(packetBytes)"
vector 76 PCE_Environment.mobileHost.wlan[0].mac.dcf.channelAccess.pendingQueue queueingTime:vector ETV
attr interpolationmode none
attr source queueingTime(packetPopped)
attr title "queueing times, vector"
attr unit s
vector 77 PCE_Environment.mobileHost.wlan[0].mac.dcf.channelAccess.inProgressFrames queueLength:vector ETV
attr interpolationmode sample-hold
attr source "count(packetEnqueued) - count(packetDequeued)"
attr title "queue length, vector"
vector 78 PCE_Environment.mobileHost.wlan[0].mac.dcf datarateSelected:vector ETV
attr interpolationmode none
attr title "datarates selected, vector"
vector 79 PCE_Environment.mobileHost.wlan[0].mac packetSentToLower:vector(packetBytes) ETV
attr interpolationmode none
attr title "packets sent to lower layer, vector(packetBytes)"
vector 80 PCE_Environment.mobileHost.wlan[0].mac.dcf frameSequenceActive:vector ETV
attr interpolationmode sample-hold
attr source count(frameSequenceStarted)-count(frameSequenceFinished)
attr title "frame sequence active, vector"
vector 81 PCE_Environment.mobileHost.wlan[0].radio transmissionState:vector ETV
attr interpolationmode sample-hold
attr source transmissionStateChanged
attr title "Radio transmission state, vector"
vector 82 PCE_Environment.mobileHost.wlan[0].mac.dcf packetSentToPeer:vector(packetBytes) ETV
attr interpolationmode none
attr title "packets sent, vector(packetBytes)"
vector 83 PCE_Environment.mobileHost.wlan[0].mac.dcf packetSentToPeerMulticast:vector(packetBytes) ETV
attr interpolationmode none
attr source ieee80211Multicast(packetSentToPeer)
attr title "packets sent: multicast, vector(packetBytes)"
vector 84 PCE_Environment.mobileHost.wlan[0].mac.dcf packetSentToPeerBroadcast:vector(packetBytes) ETV
attr interpolationmode none
attr source ieee80211Broadcast(packetSentToPeer)
attr title "packets sent: broadcast , vector(packetBytes)"
vector 85 PCE_Environment.mobileHost.wlan[0].mac.dcf packetSentToPeerWithoutRetry:vector(packetBytes) ETV
attr interpolationmode none
attr source ieee80211NotRetry(packetSentToPeer)
attr title "packets sent: without retry, vector(packetBytes)"
vector 86 PCE_Environment.mobileHost.wlan[0].mac.dcf.channelAccess.inProgressFrames queueingTime:vector ETV
attr interpolationmode none
attr source queueingTime(packetDequeued)
attr title "queueing times, vector"
vector 87 PCE_Environment.mobileHost.wlan[0].mac.dcf packetReceivedFromPeerUnicast:vector(packetBytes) ETV
attr interpolationmode none
attr source ieee80211Unicast(packetReceivedFromPeer)
attr title "packets received: unicast, vector(packetBytes)"
vector 88 PCE_Environment.wirelessHost.wlan[0].mac.rx nav:vector ETV
attr interpolationmode linear
attr source navChanged
attr title "network allocation vector, vector"
vector 89 PCE_Environment.wirelessHost.wlan[0].mac.dcf packetDrop:vector(packetBytes) ETV
attr interpolationmode none
attr source packetDropped
attr title "packet drops, vector(packetBytes)"
vector 90 PCE_Environment.wirelessHost.wlan[0].mac.dcf packetDropNotAddressedToUs:vector(packetBytes) ETV
attr interpolationmode none
attr source packetDropReasonIsNotAddressedToUs(packetDropped)
attr title "packet drops: not addressed to us, vector(packetBytes)"
vector 91 PCE_Environment.wirelessHost.wlan[0].mac packetDrop:vector(packetBytes) ETV
attr interpolationmode none
attr source packetDropped
attr title "packet drops, vector(packetBytes)"
vector 92 PCE_Environment.wirelessHost.wlan[0].mac packetDropNotAddressedToUs:vector(packetBytes) ETV
attr interpolationmode none
attr source packetDropReasonIsNotAddressedToUs(packetDropped)
attr title "packet drops: not addressed to us, vector(packetBytes)"
vector 93 PCE_Environment.mobileHost.wlan[0].mac.dcf packetSentToPeerUnicast:vector(packetBytes) ETV
attr interpolationmode none
attr source ieee80211Unicast(packetSentToPeer)
attr title "packets sent: unicast, vector(packetBytes)"
vector 94 PCE_Environment.wirelessHost.wlan[0].agent acceptConfirm:vector ETV
attr title "accepted confirms, vector"
vector 95 PCE_Environment.mobileHost.wlan[0].agent acceptConfirm:vector ETV
attr title "accepted confirms, vector"
vector 96 PCE_Environment.ddosBot2.ipv4.arp arpRequestSent:vector(packetBytes) ETV
attr source arpRequestSent
attr title "ARP request sent, vector(packetBytes)"
vector 97 PCE_Environment.ddosBot2.eth[0].encap encapPk:vector(packetBytes) ETV
attr interpolationmode none
attr source encapPk
attr title "packets encapsulated, vector(packetBytes)"
vector 98 PCE_Environment.ddosBot2.eth[0].mac packetReceivedFromUpper:vector(packetBytes) ETV
attr interpolationmode none
attr source packetReceivedFromUpper
attr title "packet bytes from higher layer, vector(packetBytes)"
vector 99 PCE_Environment.ddosBot2.eth[0].mac.queue packetPushed:vector(packetBytes) ETV
attr interpolationmode none
attr title "packet pushed, vector(packetBytes)"
vector 100 PCE_Environment.ddosBot2.eth[0].mac.queue queueLength:vector ETV
attr interpolationmode sample-hold
attr source "count(packetPushed) - count(packetPopped) - count(packetRemoved) - count(packetDropped)"
attr title "queue length, vector"
vector 101 PCE_Environment.ddosBot2.eth[0].mac.queue packetPopped:vector(packetBytes) ETV
attr interpolationmode none
attr title "packet popped, vector(packetBytes)"
vector 102 PCE_Environment.ddosBot2.eth[0].mac.queue queueingTime:vector ETV
attr interpolationmode none
attr source queueingTime(packetPopped)
attr title "queueing times, vector"
attr unit s
vector 103 PCE_Environment.ddosBot2.eth[0].mac txPk:vector(packetBytes) ETV
attr interpolationmode none
attr source packetSentToLower
attr title "packets transmitted, vector(packetBytes)"
vector 104 PCE_Environment.etherSwitch3.eth[3].mac rxPkOk:vector(packetBytes) ETV
attr interpolationmode none
attr source rxPkOk
attr title "packets received OK, vector(packetBytes)"
vector 105 PCE_Environment.etherSwitch3.eth[3].mac passedUpPk:vector(packetBytes) ETV
attr interpolationmode none
attr source packetSentToUpper
attr title "packets passed to higher layer, vector(packetBytes)"
vector 106 PCE_Environment.etherSwitch3.eth[0].mac packetReceivedFromUpper:vector(packetBytes) ETV
attr interpolationmode none
attr source packetReceivedFromUpper
attr title "packet bytes from higher layer, vector(packetBytes)"
vector 107 PCE_Environment.etherSwitch3.eth[0].mac.queue packetPushed:vector(packetBytes) ETV
attr interpolationmode none
attr title "packet pushed, vector(packetBytes)"
vector 108 PCE_Environment.etherSwitch3.eth[0].mac.queue queueLength:vector ETV
attr interpolationmode sample-hold
attr source "count(packetPushed) - count(packetPopped) - count(packetRemoved) - count(packetDropped)"
attr title "queue length, vector"
vector 109 PCE_Environment.etherSwitch3.eth[0].mac.queue packetPopped:vector(packetBytes) ETV
attr interpolationmode none
attr title "packet popped, vector(packetBytes)"
vector 110 PCE_Environment.etherSwitch3.eth[0].mac.queue queueingTime:vector ETV
attr interpolationmode none
attr source queueingTime(packetPopped)
attr title "queueing times, vector"
attr unit s
vector 111 PCE_Environment.etherSwitch3.eth[1].mac packetReceivedFromUpper:vector(packetBytes) ETV
attr interpolationmode none
attr source packetReceivedFromUpper
attr title "packet bytes from higher layer, vector(packetBytes)"
vector 112 PCE_Environment.etherSwitch3.eth[1].mac.queue packetPushed:vector(packetBytes) ETV
attr interpolationmode none
attr title "packet pushed, vector(packetBytes)"
vector 113 PCE_Environment.etherSwitch3.eth[1].mac.queue queueLength:vector ETV
attr interpolationmode sample-hold
attr source "count(packetPushed) - count(packetPopped) - count(packetRemoved) - count(packetDropped)"
attr title "queue length, vector"
vector 114 PCE_Environment.etherSwitch3.eth[1].mac.queue packetPopped:vector(packetBytes) ETV
attr interpolationmode none
attr title "packet popped, vector(packetBytes)"
vector 115 PCE_Environment.etherSwitch3.eth[1].mac.queue queueingTime:vector ETV
attr interpolationmode none
attr source queueingTime(packetPopped)
attr title "queueing times, vector"
attr unit s
vector 116 PCE_Environment.etherSwitch3.eth[2].mac packetReceivedFromUpper:vector(packetBytes) ETV
attr interpolationmode none
attr source packetReceivedFromUpper
attr title "packet bytes from higher layer, vector(packetBytes)"
vector 117 PCE_Environment.etherSwitch3.eth[2].mac.queue packetPushed:vector(packetBytes) ETV
attr interpolationmode none
attr title "packet pushed, vector(packetBytes)"
vector 118 PCE_Environment.etherSwitch3.eth[2].mac.queue queueLength:vector ETV
attr interpolationmode sample-hold
attr source "count(packetPushed) - count(packetPopped) - count(packetRemoved) - count(packetDropped)"
attr title "queue length, vector"
vector 119 PCE_Environment.etherSwitch3.eth[2].mac.queue packetPopped:vector(packetBytes) ETV
attr interpolationmode none
attr title "packet popped, vector(packetBytes)"
vector 120 PCE_Environment.etherSwitch3.eth[2].mac.queue queueingTime:vector ETV
attr interpolationmode none
attr source queueingTime(packetPopped)
attr title "queueing times, vector"
attr unit s
vector 121 PCE_Environment.etherSwitch3.eth[4].mac packetReceivedFromUpper:vector(packetBytes) ETV
attr interpolationmode none
attr source packetReceivedFromUpper
attr title "packet bytes from higher layer, vector(packetBytes)"
vector 122 PCE_Environment.etherSwitch3.eth[4].mac.queue packetPushed:vector(packetBytes) ETV
attr interpolationmode none
attr title "packet pushed, vector(packetBytes)"
vector 123 PCE_Environment.etherSwitch3.eth[4].mac.queue queueLength:vector ETV
attr interpolationmode sample-hold
attr source "count(packetPushed) - count(packetPopped) - count(packetRemoved) - count(packetDropped)"
attr title "queue length, vector"
vector 124 PCE_Environment.etherSwitch3.eth[4].mac.queue packetPopped:vector(packetBytes) ETV
attr interpolationmode none
attr title "packet popped, vector(packetBytes)"
vector 125 PCE_Environment.etherSwitch3.eth[4].mac.queue queueingTime:vector ETV
attr interpolationmode none
attr source queueingTime(packetPopped)
attr title "queueing times, vector"
attr unit s
vector 126 PCE_Environment.etherSwitch3.eth[0].mac txPk:vector(packetBytes) ETV
attr interpolationmode none
attr source packetSentToLower
attr title "packets transmitted, vector(packetBytes)"
vector 127 PCE_Environment.etherSwitch3.eth[1].mac txPk:vector(packetBytes) ETV
attr interpolationmode none
attr source packetSentToLower
attr title "packets transmitted, vector(packetBytes)"
vector 128 PCE_Environment.etherSwitch3.eth[2].mac txPk:vector(packetBytes) ETV
attr interpolationmode none
attr source packetSentToLower
attr title "packets transmitted, vector(packetBytes)"
vector 129 PCE_Environment.etherSwitch3.eth[4].mac txPk:vector(packetBytes) ETV
attr interpolationmode none
attr source packetSentToLower
attr title "packets transmitted, vector(packetBytes)"
vector 130 PCE_Environment.standardHost3.eth[0].mac rxPkOk:vector(packetBytes) ETV
attr interpolationmode none
attr source rxPkOk
attr title "packets received OK, vector(packetBytes)"
vector 131 PCE_Environment.standardHost3.eth[0].mac passedUpPk:vector(packetBytes) ETV
attr interpolationmode none
attr source packetSentToUpper
attr title "packets passed to higher layer, vector(packetBytes)"
vector 132 PCE_Environment.standardHost4.eth[0].mac rxPkOk:vector(packetBytes) ETV
attr interpolationmode none
attr source rxPkOk
attr title "packets received OK, vector(packetBytes)"
vector 133 PCE_Environment.standardHost4.eth[0].mac passedUpPk:vector(packetBytes) ETV
attr interpolationmode none
attr source packetSentToUpper
attr title "packets passed to higher layer, vector(packetBytes)"
vector 134 PCE_Environment.clientAgent2.eth[0].mac rxPkOk:vector(packetBytes) ETV
attr interpolationmode none
attr source rxPkOk
attr title "packets received OK, vector(packetBytes)"
vector 135 PCE_Environment.clientAgent2.eth[0].mac passedUpPk:vector(packetBytes) ETV
attr interpolationmode none
attr source packetSentToUpper
attr title "packets passed to higher layer, vector(packetBytes)"
vector 136 PCE_Environment.standardHost3.eth[0].encap decapPk:vector(packetBytes) ETV
attr interpolationmode none
attr source decapPk
attr title "packets decapsulated, vector(packetBytes)"
vector 137 PCE_Environment.standardHost4.eth[0].encap decapPk:vector(packetBytes) ETV
attr interpolationmode none
attr source decapPk
attr title "packets decapsulated, vector(packetBytes)"
vector 138 PCE_Environment.clientAgent2.eth[0].encap decapPk:vector(packetBytes) ETV
attr interpolationmode none
attr source decapPk
attr title "packets decapsulated, vector(packetBytes)"
vector 139 PCE_Environment.router2.eth[2].mac rxPkOk:vector(packetBytes) ETV
attr interpolationmode none
attr source rxPkOk
attr title "packets received OK, vector(packetBytes)"
vector 140 PCE_Environment.router2.eth[2].mac passedUpPk:vector(packetBytes) ETV
attr interpolationmode none
attr source packetSentToUpper
attr title "packets passed to higher layer, vector(packetBytes)"
vector 141 PCE_Environment.etherSwitch2.eth[3].mac rxPkOk:vector(packetBytes) ETV
attr interpolationmode none
attr source rxPkOk
attr title "packets received OK, vector(packetBytes)"
vector 142 PCE_Environment.etherSwitch2.eth[3].mac passedUpPk:vector(packetBytes) ETV
attr interpolationmode none
attr source packetSentToUpper
attr title "packets passed to higher layer, vector(packetBytes)"
vector 143 PCE_Environment.router2.eth[2].encap decapPk:vector(packetBytes) ETV
attr interpolationmode none
attr source decapPk
attr title "packets decapsulated, vector(packetBytes)"
vector 144 PCE_Environment.router2.ipv4.arp arpReplySent:vector(packetBytes) ETV
attr source arpReplySent
attr title "ARP replies sent, vector(packetBytes)"
vector 145 PCE_Environment.etherSwitch2.eth[0].mac packetReceivedFromUpper:vector(packetBytes) ETV
attr interpolationmode none
attr source packetReceivedFromUpper
attr title "packet bytes from higher layer, vector(packetBytes)"
vector 146 PCE_Environment.etherSwitch2.eth[0].mac.queue packetPushed:vector(packetBytes) ETV
attr interpolationmode none
attr title "packet pushed, vector(packetBytes)"
vector 147 PCE_Environment.etherSwitch2.eth[0].mac.queue queueLength:vector ETV
attr interpolationmode sample-hold
attr source "count(packetPushed) - count(packetPopped) - count(packetRemoved) - count(packetDropped)"
attr title "queue length, vector"
vector 148 PCE_Environment.etherSwitch2.eth[0].mac.queue packetPopped:vector(packetBytes) ETV
attr interpolationmode none
attr title "packet popped, vector(packetBytes)"
vector 149 PCE_Environment.etherSwitch2.eth[0].mac.queue queueingTime:vector ETV
attr interpolationmode none
attr source queueingTime(packetPopped)
attr title "queueing times, vector"
attr unit s
vector 150 PCE_Environment.etherSwitch2.eth[1].mac packetReceivedFromUpper:vector(packetBytes) ETV
attr interpolationmode none
attr source packetReceivedFromUpper
attr title "packet bytes from higher layer, vector(packetBytes)"
vector 151 PCE_Environment.etherSwitch2.eth[1].mac.queue packetPushed:vector(packetBytes) ETV
attr interpolationmode none
attr title "packet pushed, vector(packetBytes)"
vector 152 PCE_Environment.etherSwitch2.eth[1].mac.queue queueLength:vector ETV
attr interpolationmode sample-hold
attr source "count(packetPushed) - count(packetPopped) - count(packetRemoved) - count(packetDropped)"
attr title "queue length, vector"
vector 153 PCE_Environment.etherSwitch2.eth[1].mac.queue packetPopped:vector(packetBytes) ETV
attr interpolationmode none
attr title "packet popped, vector(packetBytes)"
vector 154 PCE_Environment.etherSwitch2.eth[1].mac.queue queueingTime:vector ETV
attr interpolationmode none
attr source queueingTime(packetPopped)
attr title "queueing times, vector"
attr unit s
vector 155 PCE_Environment.etherSwitch2.eth[2].mac packetReceivedFromUpper:vector(packetBytes) ETV
attr interpolationmode none
attr source packetReceivedFromUpper
attr title "packet bytes from higher layer, vector(packetBytes)"
vector 156 PCE_Environment.etherSwitch2.eth[2].mac.queue packetPushed:vector(packetBytes) ETV
attr interpolationmode none
attr title "packet pushed, vector(packetBytes)"
vector 157 PCE_Environment.etherSwitch2.eth[2].mac.queue queueLength:vector ETV
attr interpolationmode sample-hold
attr source "count(packetPushed) - count(packetPopped) - count(packetRemoved) - count(packetDropped)"
attr title "queue length, vector"
vector 158 PCE_Environment.etherSwitch2.eth[2].mac.queue packetPopped:vector(packetBytes) ETV
attr interpolationmode none
attr title "packet popped, vector(packetBytes)"
vector 159 PCE_Environment.etherSwitch2.eth[2].mac.queue queueingTime:vector ETV
attr interpolationmode none
attr source queueingTime(packetPopped)
attr title "queueing times, vector"
attr unit s
vector 160 PCE_Environment.router2.eth[2].encap encapPk:vector(packetBytes) ETV
attr interpolationmode none
attr source encapPk
attr title "packets encapsulated, vector(packetBytes)"
vector 161 PCE_Environment.router2.eth[2].mac packetReceivedFromUpper:vector(packetBytes) ETV
attr interpolationmode none
attr source packetReceivedFromUpper
attr title "packet bytes from higher layer, vector(packetBytes)"
vector 162 PCE_Environment.router2.eth[2].mac.queue packetPushed:vector(packetBytes) ETV
attr interpolationmode none
attr source localSignal(packetPushed)
attr title "packets pushed, vector(packetBytes)"
vector 163 PCE_Environment.router2.eth[2].mac.queue queueLength:vector ETV
attr interpolationmode sample-hold
attr source "count(localSignal(packetPushed)) - count(localSignal(packetPopped)) - count(localSignal(packetRemoved)) - count(packetDropped)"
attr title "queue length, vector"
vector 164 PCE_Environment.router2.eth[2].mac.queue.classifier packetPushed:vector(packetBytes) ETV
attr interpolationmode none
attr title "packets pushed, vector(packetBytes)"
vector 165 PCE_Environment.router2.eth[2].mac.queue.dataQueue packetPushed:vector(packetBytes) ETV
attr interpolationmode none
attr title "packet pushed, vector(packetBytes)"
vector 166 PCE_Environment.router2.eth[2].mac.queue.dataQueue queueLength:vector ETV
attr interpolationmode sample-hold
attr source "count(packetPushed) - count(packetPopped) - count(packetRemoved) - count(packetDropped)"
attr title "queue length, vector"
vector 167 PCE_Environment.router2.eth[2].mac.queue.dataQueue packetPopped:vector(packetBytes) ETV
attr interpolationmode none
attr title "packet popped, vector(packetBytes)"
vector 168 PCE_Environment.router2.eth[2].mac.queue.dataQueue queueingTime:vector ETV
attr interpolationmode none
attr source queueingTime(packetPopped)
attr title "queueing times, vector"
attr unit s
vector 169 PCE_Environment.router2.eth[2].mac.queue queueingTime:vector ETV
attr interpolationmode none
attr source queueingTime(packetPopped)
attr title "queueing times, vector"
attr unit s
vector 170 PCE_Environment.router2.eth[2].mac.queue.scheduler packetPopped:vector(packetBytes) ETV
attr interpolationmode none
attr title "packets popped, vector(packetBytes)"
vector 171 PCE_Environment.router2.eth[2].mac.queue packetPopped:vector(packetBytes) ETV
attr interpolationmode none
attr source localSignal(packetPopped)
attr title "packets popped, vector(packetBytes)"
vector 172 PCE_Environment.ddosBot1.ipv4.arp arpRequestSent:vector(packetBytes) ETV
attr source arpRequestSent
attr title "ARP request sent, vector(packetBytes)"
vector 173 PCE_Environment.ddosBot1.eth[0].encap encapPk:vector(packetBytes) ETV
attr interpolationmode none
attr source encapPk
attr title "packets encapsulated, vector(packetBytes)"
vector 174 PCE_Environment.ddosBot1.eth[0].mac packetReceivedFromUpper:vector(packetBytes) ETV
attr interpolationmode none
attr source packetReceivedFromUpper
attr title "packet bytes from higher layer, vector(packetBytes)"
vector 175 PCE_Environment.ddosBot1.eth[0].mac.queue packetPushed:vector(packetBytes) ETV
attr interpolationmode none
attr title "packet pushed, vector(packetBytes)"
vector 176 PCE_Environment.ddosBot1.eth[0].mac.queue queueLength:vector ETV
attr interpolationmode sample-hold
attr source "count(packetPushed) - count(packetPopped) - count(packetRemoved) - count(packetDropped)"
attr title "queue length, vector"
vector 177 PCE_Environment.ddosBot1.eth[0].mac.queue packetPopped:vector(packetBytes) ETV
attr interpolationmode none
attr title "packet popped, vector(packetBytes)"
vector 178 PCE_Environment.ddosBot1.eth[0].mac.queue queueingTime:vector ETV
attr interpolationmode none
attr source queueingTime(packetPopped)
attr title "queueing times, vector"
attr unit s
vector 179 PCE_Environment.cloudServer6.app[0] pingTxSeq:vector ETV
attr interpolationmode none
attr title "ping tx seq, vector"
vector 180 PCE_Environment.cloudServer6.ipv4.arp arpRequestSent:vector(packetBytes) ETV
attr source arpRequestSent
attr title "ARP request sent, vector(packetBytes)"
vector 181 PCE_Environment.cloudServer6.eth[0].encap encapPk:vector(packetBytes) ETV
attr interpolationmode none
attr source encapPk
attr title "packets encapsulated, vector(packetBytes)"
vector 182 PCE_Environment.cloudServer6.eth[0].mac packetReceivedFromUpper:vector(packetBytes) ETV
attr interpolationmode none
attr source packetReceivedFromUpper
attr title "packet bytes from higher layer, vector(packetBytes)"
vector 183 PCE_Environment.cloudServer6.eth[0].mac.queue packetPushed:vector(packetBytes) ETV
attr interpolationmode none
attr title "packet pushed, vector(packetBytes)"
vector 184 PCE_Environment.cloudServer6.eth[0].mac.queue queueLength:vector ETV
attr interpolationmode sample-hold
attr source "count(packetPushed) - count(packetPopped) - count(packetRemoved) - count(packetDropped)"
attr title "queue length, vector"
vector 185 PCE_Environment.cloudServer6.eth[0].mac.queue packetPopped:vector(packetBytes) ETV
attr interpolationmode none
attr title "packet popped, vector(packetBytes)"
vector 186 PCE_Environment.cloudServer6.eth[0].mac.queue queueingTime:vector ETV
attr interpolationmode none
attr source queueingTime(packetPopped)
attr title "queueing times, vector"
attr unit s
vector 187 PCE_Environment.standardHost3.app[0] pingTxSeq:vector ETV
attr interpolationmode none
attr title "ping tx seq, vector"
vector 188 PCE_Environment.standardHost3.ipv4.arp arpRequestSent:vector(packetBytes) ETV
attr source arpRequestSent
attr title "ARP request sent, vector(packetBytes)"
vector 189 PCE_Environment.standardHost3.eth[0].encap encapPk:vector(packetBytes) ETV
attr interpolationmode none
attr source encapPk
attr title "packets encapsulated, vector(packetBytes)"
vector 190 PCE_Environment.standardHost3.eth[0].mac packetReceivedFromUpper:vector(packetBytes) ETV
attr interpolationmode none
attr source packetReceivedFromUpper
attr title "packet bytes from higher layer, vector(packetBytes)"
vector 191 PCE_Environment.standardHost3.eth[0].mac.queue packetPushed:vector(packetBytes) ETV
attr interpolationmode none
attr title "packet pushed, vector(packetBytes)"
vector 192 PCE_Environment.standardHost3.eth[0].mac.queue queueLength:vector ETV
attr interpolationmode sample-hold
attr source "count(packetPushed) - count(packetPopped) - count(packetRemoved) - count(packetDropped)"
attr title "queue length, vector"
vector 193 PCE_Environment.standardHost3.eth[0].mac.queue packetPopped:vector(packetBytes) ETV
attr interpolationmode none
attr title "packet popped, vector(packetBytes)"
vector 194 PCE_Environment.standardHost3.eth[0].mac.queue queueingTime:vector ETV
attr interpolationmode none
attr source queueingTime(packetPopped)
attr title "queueing times, vector"
attr unit s
vector 195 PCE_Environment.etherSwitch2.eth[0].mac txPk:vector(packetBytes) ETV
attr interpolationmode none
attr source packetSentToLower
attr title "packets transmitted, vector(packetBytes)"
vector 196 PCE_Environment.etherSwitch2.eth[1].mac txPk:vector(packetBytes) ETV
attr interpolationmode none
attr source packetSentToLower
attr title "packets transmitted, vector(packetBytes)"
vector 197 PCE_Environment.etherSwitch2.eth[2].mac txPk:vector(packetBytes) ETV
attr interpolationmode none
attr source packetSentToLower
attr title "packets transmitted, vector(packetBytes)"
vector 198 PCE_Environment.router2.eth[2].mac txPk:vector(packetBytes) ETV
attr interpolationmode none
attr source packetSentToLower
attr title "packets transmitted, vector(packetBytes)"
vector 199 PCE_Environment.standardHost1.eth[0].mac rxPkOk:vector(packetBytes) ETV
attr interpolationmode none
attr source rxPkOk
attr title "packets received OK, vector(packetBytes)"
vector 200 PCE_Environment.standardHost1.eth[0].mac passedUpPk:vector(packetBytes) ETV
attr interpolationmode none
attr source packetSentToUpper
attr title "packets passed to higher layer, vector(packetBytes)"
vector 201 PCE_Environment.standardHost2.eth[0].mac rxPkOk:vector(packetBytes) ETV
attr interpolationmode none
attr source rxPkOk
attr title "packets received OK, vector(packetBytes)"
vector 202 PCE_Environment.standardHost2.eth[0].mac passedUpPk:vector(packetBytes) ETV
attr interpolationmode none
attr source packetSentToUpper
attr title "packets passed to higher layer, vector(packetBytes)"
vector 203 PCE_Environment.ddosBot1.eth[0].mac rxPkOk:vector(packetBytes) ETV
attr interpolationmode none
attr source rxPkOk
attr title "packets received OK, vector(packetBytes)"
vector 204 PCE_Environment.ddosBot1.eth[0].mac passedUpPk:vector(packetBytes) ETV
attr interpolationmode none
attr source packetSentToUpper
attr title "packets passed to higher layer, vector(packetBytes)"
vector 205 PCE_Environment.standardHost1.eth[0].encap decapPk:vector(packetBytes) ETV
attr interpolationmode none
attr source decapPk
attr title "packets decapsulated, vector(packetBytes)"
vector 206 PCE_Environment.standardHost2.eth[0].encap decapPk:vector(packetBytes) ETV
attr interpolationmode none
attr source decapPk
attr title "packets decapsulated, vector(packetBytes)"
vector 207 PCE_Environment.ddosBot1.eth[0].encap decapPk:vector(packetBytes) ETV
attr interpolationmode none
attr source decapPk
attr title "packets decapsulated, vector(packetBytes)"
vector 208 PCE_Environment.etherSwitch3.eth[4].mac rxPkOk:vector(packetBytes) ETV
attr interpolationmode none
attr source rxPkOk
attr title "packets received OK, vector(packetBytes)"
vector 209 PCE_Environment.etherSwitch3.eth[4].mac passedUpPk:vector(packetBytes) ETV
attr interpolationmode none
attr source packetSentToUpper
attr title "packets passed to higher layer, vector(packetBytes)"
vector 210 PCE_Environment.etherSwitch3.eth[3].mac packetReceivedFromUpper:vector(packetBytes) ETV
attr interpolationmode none
attr source packetReceivedFromUpper
attr title "packet bytes from higher layer, vector(packetBytes)"
vector 211 PCE_Environment.etherSwitch3.eth[3].mac.queue packetPushed:vector(packetBytes) ETV
attr interpolationmode none
attr title "packet pushed, vector(packetBytes)"
vector 212 PCE_Environment.etherSwitch3.eth[3].mac.queue queueLength:vector ETV
attr interpolationmode sample-hold
attr source "count(packetPushed) - count(packetPopped) - count(packetRemoved) - count(packetDropped)"
attr title "queue length, vector"
vector 213 PCE_Environment.etherSwitch3.eth[3].mac.queue packetPopped:vector(packetBytes) ETV
attr interpolationmode none
attr title "packet popped, vector(packetBytes)"
vector 214 PCE_Environment.etherSwitch3.eth[3].mac.queue queueingTime:vector ETV
attr interpolationmode none
attr source queueingTime(packetPopped)
attr title "queueing times, vector"
attr unit s
vector 215 PCE_Environment.ddosBot1.eth[0].mac txPk:vector(packetBytes) ETV
attr interpolationmode none
attr source packetSentToLower
attr title "packets transmitted, vector(packetBytes)"
vector 216 PCE_Environment.standardHost2.app[0] pingTxSeq:vector ETV
attr interpolationmode none
attr title "ping tx seq, vector"
vector 217 PCE_Environment.standardHost2.ipv4.arp arpRequestSent:vector(packetBytes) ETV
attr source arpRequestSent
attr title "ARP request sent, vector(packetBytes)"
vector 218 PCE_Environment.standardHost2.eth[0].encap encapPk:vector(packetBytes) ETV
attr interpolationmode none
attr source encapPk
attr title "packets encapsulated, vector(packetBytes)"
vector 219 PCE_Environment.standardHost2.eth[0].mac packetReceivedFromUpper:vector(packetBytes) ETV
attr interpolationmode none
attr source packetReceivedFromUpper
attr title "packet bytes from higher layer, vector(packetBytes)"
vector 220 PCE_Environment.standardHost2.eth[0].mac.queue packetPushed:vector(packetBytes) ETV
attr interpolationmode none
attr title "packet pushed, vector(packetBytes)"
vector 221 PCE_Environment.standardHost2.eth[0].mac.queue queueLength:vector ETV
attr interpolationmode sample-hold
attr source "count(packetPushed) - count(packetPopped) - count(packetRemoved) - count(packetDropped)"
attr title "queue length, vector"
vector 222 PCE_Environment.standardHost2.eth[0].mac.queue packetPopped:vector(packetBytes) ETV
attr interpolationmode none
attr title "packet popped, vector(packetBytes)"
vector 223 PCE_Environment.standardHost2.eth[0].mac.queue queueingTime:vector ETV
attr interpolationmode none
attr source queueingTime(packetPopped)
attr title "queueing times, vector"
attr unit s
vector 224 PCE_Environment.etherSwitch2.eth[2].mac rxPkOk:vector(packetBytes) ETV
attr interpolationmode none
attr source rxPkOk
attr title "packets received OK, vector(packetBytes)"
vector 225 PCE_Environment.etherSwitch2.eth[2].mac passedUpPk:vector(packetBytes) ETV
attr interpolationmode none
attr source packetSentToUpper
attr title "packets passed to higher layer, vector(packetBytes)"
vector 226 PCE_Environment.etherSwitch2.eth[3].mac packetReceivedFromUpper:vector(packetBytes) ETV
attr interpolationmode none
attr source packetReceivedFromUpper
attr title "packet bytes from higher layer, vector(packetBytes)"
vector 227 PCE_Environment.etherSwitch2.eth[3].mac.queue packetPushed:vector(packetBytes) ETV
attr interpolationmode none
attr title "packet pushed, vector(packetBytes)"
vector 228 PCE_Environment.etherSwitch2.eth[3].mac.queue queueLength:vector ETV
attr interpolationmode sample-hold
attr source "count(packetPushed) - count(packetPopped) - count(packetRemoved) - count(packetDropped)"
attr title "queue length, vector"
vector 229 PCE_Environment.etherSwitch2.eth[3].mac.queue packetPopped:vector(packetBytes) ETV
attr interpolationmode none
attr title "packet popped, vector(packetBytes)"
vector 230 PCE_Environment.etherSwitch2.eth[3].mac.queue queueingTime:vector ETV
attr interpolationmode none
attr source queueingTime(packetPopped)
attr title "queueing times, vector"
attr unit s
vector 231 PCE_Environment.cloudServer4.app[0] pingTxSeq:vector ETV
attr interpolationmode none
attr title "ping tx seq, vector"
vector 232 PCE_Environment.cloudServer4.ipv4.arp arpRequestSent:vector(packetBytes) ETV
attr source arpRequestSent
attr title "ARP request sent, vector(packetBytes)"
vector 233 PCE_Environment.cloudServer4.eth[0].encap encapPk:vector(packetBytes) ETV
attr interpolationmode none
attr source encapPk
attr title "packets encapsulated, vector(packetBytes)"
vector 234 PCE_Environment.cloudServer4.eth[0].mac packetReceivedFromUpper:vector(packetBytes) ETV
attr interpolationmode none
attr source packetReceivedFromUpper
attr title "packet bytes from higher layer, vector(packetBytes)"
vector 235 PCE_Environment.cloudServer4.eth[0].mac.queue packetPushed:vector(packetBytes) ETV
attr interpolationmode none
attr title "packet pushed, vector(packetBytes)"
vector 236 PCE_Environment.cloudServer4.eth[0].mac.queue queueLength:vector ETV
attr interpolationmode sample-hold
attr source "count(packetPushed) - count(packetPopped) - count(packetRemoved) - count(packetDropped)"
attr title "queue length, vector"
vector 237 PCE_Environment.cloudServer4.eth[0].mac.queue packetPopped:vector(packetBytes) ETV
attr interpolationmode none
attr title "packet popped, vector(packetBytes)"
vector 238 PCE_Environment.cloudServer4.eth[0].mac.queue queueingTime:vector ETV
attr interpolationmode none
attr source queueingTime(packetPopped)
attr title "queueing times, vector"
attr unit s
vector 239 PCE_Environment.cloudServer6.eth[0].mac txPk:vector(packetBytes) ETV
attr interpolationmode none
attr source packetSentToLower
attr title "packets transmitted, vector(packetBytes)"
vector 240 PCE_Environment.standardHost4.app[0] pingTxSeq:vector ETV
attr interpolationmode none
attr title "ping tx seq, vector"
vector 241 PCE_Environment.standardHost4.ipv4.arp arpRequestSent:vector(packetBytes) ETV
attr source arpRequestSent
attr title "ARP request sent, vector(packetBytes)"
vector 242 PCE_Environment.standardHost4.eth[0].encap encapPk:vector(packetBytes) ETV
attr interpolationmode none
attr source encapPk
attr title "packets encapsulated, vector(packetBytes)"
vector 243 PCE_Environment.standardHost4.eth[0].mac packetReceivedFromUpper:vector(packetBytes) ETV
attr interpolationmode none
attr source packetReceivedFromUpper
attr title "packet bytes from higher layer, vector(packetBytes)"
vector 244 PCE_Environment.standardHost4.eth[0].mac.queue packetPushed:vector(packetBytes) ETV
attr interpolationmode none
attr title "packet pushed, vector(packetBytes)"
vector 245 PCE_Environment.standardHost4.eth[0].mac.queue queueLength:vector ETV
attr interpolationmode sample-hold
attr source "count(packetPushed) - count(packetPopped) - count(packetRemoved) - count(packetDropped)"
attr title "queue length, vector"
vector 246 PCE_Environment.standardHost4.eth[0].mac.queue packetPopped:vector(packetBytes) ETV
attr interpolationmode none
attr title "packet popped, vector(packetBytes)"
vector 247 PCE_Environment.standardHost4.eth[0].mac.queue queueingTime:vector ETV
attr interpolationmode none
attr source queueingTime(packetPopped)
attr title "queueing times, vector"
attr unit s
vector 248 PCE_Environment.router6.eth[2].mac rxPkOk:vector(packetBytes) ETV
attr interpolationmode none
attr source rxPkOk
attr title "packets received OK, vector(packetBytes)"
vector 249 PCE_Environment.router6.eth[2].mac passedUpPk:vector(packetBytes) ETV
attr interpolationmode none
attr source packetSentToUpper
attr title "packets passed to higher layer, vector(packetBytes)"
vector 250 PCE_Environment.router6.eth[2].encap decapPk:vector(packetBytes) ETV
attr interpolationmode none
attr source decapPk
attr title "packets decapsulated, vector(packetBytes)"
vector 251 PCE_Environment.router6.ipv4.arp arpReplySent:vector(packetBytes) ETV
attr source arpReplySent
attr title "ARP replies sent, vector(packetBytes)"
vector 252 PCE_Environment.router6.eth[2].encap encapPk:vector(packetBytes) ETV
attr interpolationmode none
attr source encapPk
attr title "packets encapsulated, vector(packetBytes)"
vector 253 PCE_Environment.router6.eth[2].mac packetReceivedFromUpper:vector(packetBytes) ETV
attr interpolationmode none
attr source packetReceivedFromUpper
attr title "packet bytes from higher layer, vector(packetBytes)"
vector 254 PCE_Environment.router6.eth[2].mac.queue packetPushed:vector(packetBytes) ETV
attr interpolationmode none
attr source localSignal(packetPushed)
attr title "packets pushed, vector(packetBytes)"
vector 255 PCE_Environment.router6.eth[2].mac.queue queueLength:vector ETV
attr interpolationmode sample-hold
attr source "count(localSignal(packetPushed)) - count(localSignal(packetPopped)) - count(localSignal(packetRemoved)) - count(packetDropped)"
attr title "queue length, vector"
vector 256 PCE_Environment.router6.eth[2].mac.queue.classifier packetPushed:vector(packetBytes) ETV
attr interpolationmode none
attr title "packets pushed, vector(packetBytes)"
vector 257 PCE_Environment.router6.eth[2].mac.queue.dataQueue packetPushed:vector(packetBytes) ETV
attr interpolationmode none
attr title "packet pushed, vector(packetBytes)"
vector 258 PCE_Environment.router6.eth[2].mac.queue.dataQueue queueLength:vector ETV
attr interpolationmode sample-hold
attr source "count(packetPushed) - count(packetPopped) - count(packetRemoved) - count(packetDropped)"
attr title "queue length, vector"
vector 259 PCE_Environment.router6.eth[2].mac.queue.dataQueue packetPopped:vector(packetBytes) ETV
attr interpolationmode none
attr title "packet popped, vector(packetBytes)"
vector 260 PCE_Environment.router6.eth[2].mac.queue.dataQueue queueingTime:vector ETV
attr interpolationmode none
attr source queueingTime(packetPopped)
attr title "queueing times, vector"
attr unit s
vector 261 PCE_Environment.router6.eth[2].mac.queue queueingTime:vector ETV
attr interpolationmode none
attr source queueingTime(packetPopped)
attr title "queueing times, vector"
attr unit s
vector 262 PCE_Environment.router6.eth[2].mac.queue.scheduler packetPopped:vector(packetBytes) ETV
attr interpolationmode none
attr title "packets popped, vector(packetBytes)"
vector 263 PCE_Environment.router6.eth[2].mac.queue packetPopped:vector(packetBytes) ETV
attr interpolationmode none
attr source localSignal(packetPopped)
attr title "packets popped, vector(packetBytes)"
vector 264 PCE_Environment.cloudServer2.app[0] pingTxSeq:vector ETV
attr interpolationmode none
attr title "ping tx seq, vector"
vector 265 PCE_Environment.cloudServer2.ipv4.arp arpRequestSent:vector(packetBytes) ETV
attr source arpRequestSent
attr title "ARP request sent, vector(packetBytes)"
vector 266 PCE_Environment.cloudServer2.eth[0].encap encapPk:vector(packetBytes) ETV
attr interpolationmode none
attr source encapPk
attr title "packets encapsulated, vector(packetBytes)"
vector 267 PCE_Environment.cloudServer2.eth[0].mac packetReceivedFromUpper:vector(packetBytes) ETV
attr interpolationmode none
attr source packetReceivedFromUpper
attr title "packet bytes from higher layer, vector(packetBytes)"
vector 268 PCE_Environment.cloudServer2.eth[0].mac.queue packetPushed:vector(packetBytes) ETV
attr interpolationmode none
attr title "packet pushed, vector(packetBytes)"
vector 269 PCE_Environment.cloudServer2.eth[0].mac.queue queueLength:vector ETV
attr interpolationmode sample-hold
attr source "count(packetPushed) - count(packetPopped) - count(packetRemoved) - count(packetDropped)"
attr title "queue length, vector"
vector 270 PCE_Environment.cloudServer2.eth[0].mac.queue packetPopped:vector(packetBytes) ETV
attr interpolationmode none
attr title "packet popped, vector(packetBytes)"
vector 271 PCE_Environment.cloudServer2.eth[0].mac.queue queueingTime:vector ETV
attr interpolationmode none
attr source queueingTime(packetPopped)
attr title "queueing times, vector"
attr unit s
vector 272 PCE_Environment.standardHost3.eth[0].mac txPk:vector(packetBytes) ETV
attr interpolationmode none
attr source packetSentToLower
attr title "packets transmitted, vector(packetBytes)"
vector 273 PCE_Environment.etherSwitch3.eth[0].mac rxPkOk:vector(packetBytes) ETV
attr interpolationmode none
attr source rxPkOk
attr title "packets received OK, vector(packetBytes)"
vector 274 PCE_Environment.etherSwitch3.eth[0].mac passedUpPk:vector(packetBytes) ETV
attr interpolationmode none
attr source packetSentToUpper
attr title "packets passed to higher layer, vector(packetBytes)"
vector 275 PCE_Environment.etherSwitch3.eth[3].mac txPk:vector(packetBytes) ETV
attr interpolationmode none
attr source packetSentToLower
attr title "packets transmitted, vector(packetBytes)"
vector 276 PCE_Environment.ddosBot2.eth[0].mac rxPkOk:vector(packetBytes) ETV
attr interpolationmode none
attr source rxPkOk
attr title "packets received OK, vector(packetBytes)"
vector 277 PCE_Environment.ddosBot2.eth[0].mac passedUpPk:vector(packetBytes) ETV
attr interpolationmode none
attr source packetSentToUpper
attr title "packets passed to higher layer, vector(packetBytes)"
vector 278 PCE_Environment.ddosBot2.eth[0].encap decapPk:vector(packetBytes) ETV
attr interpolationmode none
attr source decapPk
attr title "packets decapsulated, vector(packetBytes)"
vector 279 PCE_Environment.standardHost2.eth[0].mac txPk:vector(packetBytes) ETV
attr interpolationmode none
attr source packetSentToLower
attr title "packets transmitted, vector(packetBytes)"
vector 280 PCE_Environment.etherSwitch2.eth[3].mac txPk:vector(packetBytes) ETV
attr interpolationmode none
attr source packetSentToLower
attr title "packets transmitted, vector(packetBytes)"
vector 281 PCE_Environment.etherSwitch2.eth[1].mac rxPkOk:vector(packetBytes) ETV
attr interpolationmode none
attr source rxPkOk
attr title "packets received OK, vector(packetBytes)"
vector 282 PCE_Environment.etherSwitch2.eth[1].mac passedUpPk:vector(packetBytes) ETV
attr interpolationmode none
attr source packetSentToUpper
attr title "packets passed to higher layer, vector(packetBytes)"
vector 283 PCE_Environment.etherSwitch2.eth[3].mac collision:vector ETV
attr interpolationmode none
attr title "collision, vector"
vector 284 PCE_Environment.cloudServer4.eth[0].mac txPk:vector(packetBytes) ETV
attr interpolationmode none
attr source packetSentToLower
attr title "packets transmitted, vector(packetBytes)"
vector 285 PCE_Environment.router6.eth[0].mac rxPkOk:vector(packetBytes) ETV
attr interpolationmode none
attr source rxPkOk
attr title "packets received OK, vector(packetBytes)"
vector 286 PCE_Environment.router6.eth[0].mac passedUpPk:vector(packetBytes) ETV
attr interpolationmode none
attr source packetSentToUpper
attr title "packets passed to higher layer, vector(packetBytes)"
vector 287 PCE_Environment.router6.eth[0].encap decapPk:vector(packetBytes) ETV
attr interpolationmode none
attr source decapPk
attr title "packets decapsulated, vector(packetBytes)"
vector 288 PCE_Environment.router6.eth[0].encap encapPk:vector(packetBytes) ETV
attr interpolationmode none
attr source encapPk
attr title "packets encapsulated, vector(packetBytes)"
vector 289 PCE_Environment.router6.eth[0].mac packetReceivedFromUpper:vector(packetBytes) ETV
attr interpolationmode none
attr source packetReceivedFromUpper
attr title "packet bytes from higher layer, vector(packetBytes)"
vector 290 PCE_Environment.router6.eth[0].mac.queue packetPushed:vector(packetBytes) ETV
attr interpolationmode none
attr source localSignal(packetPushed)
attr title "packets pushed, vector(packetBytes)"
vector 291 PCE_Environment.router6.eth[0].mac.queue queueLength:vector ETV
attr interpolationmode sample-hold
attr source "count(localSignal(packetPushed)) - count(localSignal(packetPopped)) - count(localSignal(packetRemoved)) - count(packetDropped)"
attr title "queue length, vector"
vector 292 PCE_Environment.router6.eth[0].mac.queue.classifier packetPushed:vector(packetBytes) ETV
attr interpolationmode none
attr title "packets pushed, vector(packetBytes)"
vector 293 PCE_Environment.router6.eth[0].mac.queue.dataQueue packetPushed:vector(packetBytes) ETV
attr interpolationmode none
attr title "packet pushed, vector(packetBytes)"
vector 294 PCE_Environment.router6.eth[0].mac.queue.dataQueue queueLength:vector ETV
attr interpolationmode sample-hold
attr source "count(packetPushed) - count(packetPopped) - count(packetRemoved) - count(packetDropped)"
attr title "queue length, vector"
vector 295 PCE_Environment.router6.eth[0].mac.queue.dataQueue packetPopped:vector(packetBytes) ETV
attr interpolationmode none
attr title "packet popped, vector(packetBytes)"
vector 296 PCE_Environment.router6.eth[0].mac.queue.dataQueue queueingTime:vector ETV
attr interpolationmode none
attr source queueingTime(packetPopped)
attr title "queueing times, vector"
attr unit s
vector 297 PCE_Environment.router6.eth[0].mac.queue queueingTime:vector ETV
attr interpolationmode none
attr source queueingTime(packetPopped)
attr title "queueing times, vector"
attr unit s
vector 298 PCE_Environment.router6.eth[0].mac.queue.scheduler packetPopped:vector(packetBytes) ETV
attr interpolationmode none
attr title "packets popped, vector(packetBytes)"
vector 299 PCE_Environment.router6.eth[0].mac.queue packetPopped:vector(packetBytes) ETV
attr interpolationmode none
attr source localSignal(packetPopped)
attr title "packets popped, vector(packetBytes)"
vector 300 PCE_Environment.etherSwitch3.eth[4].mac collision:vector ETV
attr interpolationmode none
attr title "collision, vector"
vector 301 PCE_Environment.standardHost4.eth[0].mac txPk:vector(packetBytes) ETV
attr interpolationmode none
attr source packetSentToLower
attr title "packets transmitted, vector(packetBytes)"
vector 302 PCE_Environment.router6.eth[2].mac txPk:vector(packetBytes) ETV
attr interpolationmode none
attr source packetSentToLower
attr title "packets transmitted, vector(packetBytes)"
vector 303 PCE_Environment.etherSwitch3.eth[1].mac rxPkOk:vector(packetBytes) ETV
attr interpolationmode none
attr source rxPkOk
attr title "packets received OK, vector(packetBytes)"
vector 304 PCE_Environment.etherSwitch3.eth[1].mac passedUpPk:vector(packetBytes) ETV
attr interpolationmode none
attr source packetSentToUpper
attr title "packets passed to higher layer, vector(packetBytes)"
vector 305 PCE_Environment.cloudServer6.eth[0].mac rxPkOk:vector(packetBytes) ETV
attr interpolationmode none
attr source rxPkOk
attr title "packets received OK, vector(packetBytes)"
vector 306 PCE_Environment.cloudServer6.eth[0].mac passedUpPk:vector(packetBytes) ETV
attr interpolationmode none
attr source packetSentToUpper
attr title "packets passed to higher layer, vector(packetBytes)"
vector 307 PCE_Environment.cloudServer6.eth[0].encap decapPk:vector(packetBytes) ETV
attr interpolationmode none
attr source decapPk
attr title "packets decapsulated, vector(packetBytes)"
vector 308 PCE_Environment.cloudServer2.eth[0].mac txPk:vector(packetBytes) ETV
attr interpolationmode none
attr source packetSentToLower
attr title "packets transmitted, vector(packetBytes)"
vector 309 PCE_Environment.router5.eth[1].mac rxPkOk:vector(packetBytes) ETV
attr interpolationmode none
attr source rxPkOk
attr title "packets received OK, vector(packetBytes)"
vector 310 PCE_Environment.router5.eth[1].mac passedUpPk:vector(packetBytes) ETV
attr interpolationmode none
attr source packetSentToUpper
attr title "packets passed to higher layer, vector(packetBytes)"
vector 311 PCE_Environment.router5.eth[1].encap decapPk:vector(packetBytes) ETV
attr interpolationmode none
attr source decapPk
attr title "packets decapsulated, vector(packetBytes)"
vector 312 PCE_Environment.router5.ipv4.arp arpReplySent:vector(packetBytes) ETV
attr source arpReplySent
attr title "ARP replies sent, vector(packetBytes)"
vector 313 PCE_Environment.router5.eth[1].encap encapPk:vector(packetBytes) ETV
attr interpolationmode none
attr source encapPk
attr title "packets encapsulated, vector(packetBytes)"
vector 314 PCE_Environment.router5.eth[1].mac packetReceivedFromUpper:vector(packetBytes) ETV
attr interpolationmode none
attr source packetReceivedFromUpper
attr title "packet bytes from higher layer, vector(packetBytes)"
vector 315 PCE_Environment.router5.eth[1].mac.queue packetPushed:vector(packetBytes) ETV
attr interpolationmode none
attr source localSignal(packetPushed)
attr title "packets pushed, vector(packetBytes)"
vector 316 PCE_Environment.router5.eth[1].mac.queue queueLength:vector ETV
attr interpolationmode sample-hold
attr source "count(localSignal(packetPushed)) - count(localSignal(packetPopped)) - count(localSignal(packetRemoved)) - count(packetDropped)"
attr title "queue length, vector"
vector 317 PCE_Environment.router5.eth[1].mac.queue.classifier packetPushed:vector(packetBytes) ETV
attr interpolationmode none
attr title "packets pushed, vector(packetBytes)"
vector 318 PCE_Environment.router5.eth[1].mac.queue.dataQueue packetPushed:vector(packetBytes) ETV
attr interpolationmode none
attr title "packet pushed, vector(packetBytes)"
vector 319 PCE_Environment.router5.eth[1].mac.queue.dataQueue queueLength:vector ETV
attr interpolationmode sample-hold
attr source "count(packetPushed) - count(packetPopped) - count(packetRemoved) - count(packetDropped)"
attr title "queue length, vector"
vector 320 PCE_Environment.router5.eth[1].mac.queue.dataQueue packetPopped:vector(packetBytes) ETV
attr interpolationmode none
attr title "packet popped, vector(packetBytes)"
vector 321 PCE_Environment.router5.eth[1].mac.queue.dataQueue queueingTime:vector ETV
attr interpolationmode none
attr source queueingTime(packetPopped)
attr title "queueing times, vector"
attr unit s
vector 322 PCE_Environment.router5.eth[1].mac.queue queueingTime:vector ETV
attr interpolationmode none
attr source queueingTime(packetPopped)
attr title "queueing times, vector"
attr unit s
vector 323 PCE_Environment.router5.eth[1].mac.queue.scheduler packetPopped:vector(packetBytes) ETV
attr interpolationmode none
attr title "packets popped, vector(packetBytes)"
vector 324 PCE_Environment.router5.eth[1].mac.queue packetPopped:vector(packetBytes) ETV
attr interpolationmode none
attr source localSignal(packetPopped)
attr title "packets popped, vector(packetBytes)"
vector 325 PCE_Environment.standardHost1.app[0] pingTxSeq:vector ETV
attr interpolationmode none
attr title "ping tx seq, vector"
vector 326 PCE_Environment.standardHost1.ipv4.arp arpRequestSent:vector(packetBytes) ETV
attr source arpRequestSent
attr title "ARP request sent, vector(packetBytes)"
vector 327 PCE_Environment.standardHost1.eth[0].encap encapPk:vector(packetBytes) ETV
attr interpolationmode none
attr source encapPk
attr title "packets encapsulated, vector(packetBytes)"
vector 328 PCE_Environment.standardHost1.eth[0].mac packetReceivedFromUpper:vector(packetBytes) ETV
attr interpolationmode none
attr source packetReceivedFromUpper
attr title "packet bytes from higher layer, vector(packetBytes)"
vector 329 PCE_Environment.standardHost1.eth[0].mac.queue packetPushed:vector(packetBytes) ETV
attr interpolationmode none
attr title "packet pushed, vector(packetBytes)"
vector 330 PCE_Environment.standardHost1.eth[0].mac.queue queueLength:vector ETV
attr interpolationmode sample-hold
attr source "count(packetPushed) - count(packetPopped) - count(packetRemoved) - count(packetDropped)"
attr title "queue length, vector"
vector 331 PCE_Environment.standardHost1.eth[0].mac.queue packetPopped:vector(packetBytes) ETV
attr interpolationmode none
attr title "packet popped, vector(packetBytes)"
vector 332 PCE_Environment.standardHost1.eth[0].mac.queue queueingTime:vector ETV
attr interpolationmode none
attr source queueingTime(packetPopped)
attr title "queueing times, vector"
attr unit s
vector 333 PCE_Environment.router6.eth[0].mac txPk:vector(packetBytes) ETV
attr interpolationmode none
attr source packetSentToLower
attr title "packets transmitted, vector(packetBytes)"
vector 334 PCE_Environment.cloudServer4.eth[0].mac rxPkOk:vector(packetBytes) ETV
attr interpolationmode none
attr source rxPkOk
attr title "packets received OK, vector(packetBytes)"
vector 335 PCE_Environment.cloudServer4.eth[0].mac passedUpPk:vector(packetBytes) ETV
attr interpolationmode none
attr source packetSentToUpper
attr title "packets passed to higher layer, vector(packetBytes)"
vector 336 PCE_Environment.cloudServer4.eth[0].encap decapPk:vector(packetBytes) ETV
attr interpolationmode none
attr source decapPk
attr title "packets decapsulated, vector(packetBytes)"
vector 337 PCE_Environment.cloudServer1.app[0] pingTxSeq:vector ETV
attr interpolationmode none
attr title "ping tx seq, vector"
vector 338 PCE_Environment.cloudServer1.ipv4.arp arpRequestSent:vector(packetBytes) ETV
attr source arpRequestSent
attr title "ARP request sent, vector(packetBytes)"
vector 339 PCE_Environment.cloudServer1.eth[0].encap encapPk:vector(packetBytes) ETV
attr interpolationmode none
attr source encapPk
attr title "packets encapsulated, vector(packetBytes)"
vector 340 PCE_Environment.cloudServer1.eth[0].mac packetReceivedFromUpper:vector(packetBytes) ETV
attr interpolationmode none
attr source packetReceivedFromUpper
attr title "packet bytes from higher layer, vector(packetBytes)"
vector 341 PCE_Environment.cloudServer1.eth[0].mac.queue packetPushed:vector(packetBytes) ETV
attr interpolationmode none
attr title "packet pushed, vector(packetBytes)"
vector 342 PCE_Environment.cloudServer1.eth[0].mac.queue queueLength:vector ETV
attr interpolationmode sample-hold
attr source "count(packetPushed) - count(packetPopped) - count(packetRemoved) - count(packetDropped)"
attr title "queue length, vector"
vector 343 PCE_Environment.cloudServer1.eth[0].mac.queue packetPopped:vector(packetBytes) ETV
attr interpolationmode none
attr title "packet popped, vector(packetBytes)"
vector 344 PCE_Environment.cloudServer1.eth[0].mac.queue queueingTime:vector ETV
attr interpolationmode none
attr source queueingTime(packetPopped)
attr title "queueing times, vector"
attr unit s
vector 345 PCE_Environment.cloudServer5.app[0] pingTxSeq:vector ETV
attr interpolationmode none
attr title "ping tx seq, vector"
vector 346 PCE_Environment.cloudServer5.ipv4.arp arpRequestSent:vector(packetBytes) ETV
attr source arpRequestSent
attr title "ARP request sent, vector(packetBytes)"
vector 347 PCE_Environment.cloudServer5.eth[0].encap encapPk:vector(packetBytes) ETV
attr interpolationmode none
attr source encapPk
attr title "packets encapsulated, vector(packetBytes)"
vector 348 PCE_Environment.cloudServer5.eth[0].mac packetReceivedFromUpper:vector(packetBytes) ETV
attr interpolationmode none
attr source packetReceivedFromUpper
attr title "packet bytes from higher layer, vector(packetBytes)"
vector 349 PCE_Environment.cloudServer5.eth[0].mac.queue packetPushed:vector(packetBytes) ETV
attr interpolationmode none
attr title "packet pushed, vector(packetBytes)"
vector 350 PCE_Environment.cloudServer5.eth[0].mac.queue queueLength:vector ETV
attr interpolationmode sample-hold
attr source "count(packetPushed) - count(packetPopped) - count(packetRemoved) - count(packetDropped)"
attr title "queue length, vector"
vector 351 PCE_Environment.cloudServer5.eth[0].mac.queue packetPopped:vector(packetBytes) ETV
attr interpolationmode none
attr title "packet popped, vector(packetBytes)"
vector 352 PCE_Environment.cloudServer5.eth[0].mac.queue queueingTime:vector ETV
attr interpolationmode none
attr source queueingTime(packetPopped)
attr title "queueing times, vector"
attr unit s
vector 353 PCE_Environment.cloudServer3.app[0] pingTxSeq:vector ETV
attr interpolationmode none
attr title "ping tx seq, vector"
vector 354 PCE_Environment.cloudServer3.ipv4.arp arpRequestSent:vector(packetBytes) ETV
attr source arpRequestSent
attr title "ARP request sent, vector(packetBytes)"
vector 355 PCE_Environment.cloudServer3.eth[0].encap encapPk:vector(packetBytes) ETV
attr interpolationmode none
attr source encapPk
attr title "packets encapsulated, vector(packetBytes)"
vector 356 PCE_Environment.cloudServer3.eth[0].mac packetReceivedFromUpper:vector(packetBytes) ETV
attr interpolationmode none
attr source packetReceivedFromUpper
attr title "packet bytes from higher layer, vector(packetBytes)"
vector 357 PCE_Environment.cloudServer3.eth[0].mac.queue packetPushed:vector(packetBytes) ETV
attr interpolationmode none
attr title "packet pushed, vector(packetBytes)"
vector 358 PCE_Environment.cloudServer3.eth[0].mac.queue queueLength:vector ETV
attr interpolationmode sample-hold
attr source "count(packetPushed) - count(packetPopped) - count(packetRemoved) - count(packetDropped)"
attr title "queue length, vector"
vector 359 PCE_Environment.cloudServer3.eth[0].mac.queue packetPopped:vector(packetBytes) ETV
attr interpolationmode none
attr title "packet popped, vector(packetBytes)"
vector 360 PCE_Environment.cloudServer3.eth[0].mac.queue queueingTime:vector ETV
attr interpolationmode none
attr source queueingTime(packetPopped)
attr title "queueing times, vector"
attr unit s
vector 361 PCE_Environment.router5.eth[1].mac txPk:vector(packetBytes) ETV
attr interpolationmode none
attr source packetSentToLower
attr title "packets transmitted, vector(packetBytes)"
vector 362 PCE_Environment.cloudServer2.eth[0].mac rxPkOk:vector(packetBytes) ETV
attr interpolationmode none
attr source rxPkOk
attr title "packets received OK, vector(packetBytes)"
vector 363 PCE_Environment.cloudServer2.eth[0].mac passedUpPk:vector(packetBytes) ETV
attr interpolationmode none
attr source packetSentToUpper
attr title "packets passed to higher layer, vector(packetBytes)"
vector 364 PCE_Environment.cloudServer2.eth[0].encap decapPk:vector(packetBytes) ETV
attr interpolationmode none
attr source decapPk
attr title "packets decapsulated, vector(packetBytes)"
vector 365 PCE_Environment.router6.ipv4.arp arpRequestSent:vector(packetBytes) ETV
attr source arpRequestSent
attr title "ARP request sent, vector(packetBytes)"
vector 366 PCE_Environment.router6.eth[3].encap encapPk:vector(packetBytes) ETV
attr interpolationmode none
attr source encapPk
attr title "packets encapsulated, vector(packetBytes)"
vector 367 PCE_Environment.router6.eth[3].mac packetReceivedFromUpper:vector(packetBytes) ETV
attr interpolationmode none
attr source packetReceivedFromUpper
attr title "packet bytes from higher layer, vector(packetBytes)"
vector 368 PCE_Environment.router6.eth[3].mac.queue packetPushed:vector(packetBytes) ETV
attr interpolationmode none
attr source localSignal(packetPushed)
attr title "packets pushed, vector(packetBytes)"
vector 369 PCE_Environment.router6.eth[3].mac.queue queueLength:vector ETV
attr interpolationmode sample-hold
attr source "count(localSignal(packetPushed)) - count(localSignal(packetPopped)) - count(localSignal(packetRemoved)) - count(packetDropped)"
attr title "queue length, vector"
vector 370 PCE_Environment.router6.eth[3].mac.queue.classifier packetPushed:vector(packetBytes) ETV
attr interpolationmode none
attr title "packets pushed, vector(packetBytes)"
vector 371 PCE_Environment.router6.eth[3].mac.queue.dataQueue packetPushed:vector(packetBytes) ETV
attr interpolationmode none
attr title "packet pushed, vector(packetBytes)"
vector 372 PCE_Environment.router6.eth[3].mac.queue.dataQueue queueLength:vector ETV
attr interpolationmode sample-hold
attr source "count(packetPushed) - count(packetPopped) - count(packetRemoved) - count(packetDropped)"
attr title "queue length, vector"
vector 373 PCE_Environment.router6.eth[3].mac.queue.dataQueue packetPopped:vector(packetBytes) ETV
attr interpolationmode none
attr title "packet popped, vector(packetBytes)"
vector 374 PCE_Environment.router6.eth[3].mac.queue.dataQueue queueingTime:vector ETV
attr interpolationmode none
attr source queueingTime(packetPopped)
attr title "queueing times, vector"
attr unit s
vector 375 PCE_Environment.router6.eth[3].mac.queue queueingTime:vector ETV
attr interpolationmode none
attr source queueingTime(packetPopped)
attr title "queueing times, vector"
attr unit s
vector 376 PCE_Environment.router6.eth[3].mac.queue.scheduler packetPopped:vector(packetBytes) ETV
attr interpolationmode none
attr title "packets popped, vector(packetBytes)"
vector 377 PCE_Environment.router6.eth[3].mac.queue packetPopped:vector(packetBytes) ETV
attr interpolationmode none
attr source localSignal(packetPopped)
attr title "packets popped, vector(packetBytes)"
vector 378 PCE_Environment.standardHost1.eth[0].mac txPk:vector(packetBytes) ETV
attr interpolationmode none
attr source packetSentToLower
attr title "packets transmitted, vector(packetBytes)"
vector 379 PCE_Environment.etherSwitch2.eth[0].mac rxPkOk:vector(packetBytes) ETV
attr interpolationmode none
attr source rxPkOk
attr title "packets received OK, vector(packetBytes)"
vector 380 PCE_Environment.etherSwitch2.eth[0].mac passedUpPk:vector(packetBytes) ETV
attr interpolationmode none
attr source packetSentToUpper
attr title "packets passed to higher layer, vector(packetBytes)"
vector 381 PCE_Environment.cloudServer1.eth[0].mac txPk:vector(packetBytes) ETV
attr interpolationmode none
attr source packetSentToLower
attr title "packets transmitted, vector(packetBytes)"
vector 382 PCE_Environment.router5.eth[0].mac rxPkOk:vector(packetBytes) ETV
attr interpolationmode none
[...]
280	1286044 210 21961 23381 2.001940136749 2.002060136749 7 102 102 714 72828
283	1286254 28 22953 22953 2.002029786192 2.002029786192 1 1 1 1 1
284	1286282 60 22153 23090 2.001960595327 2.002040595327 2 102 102 204 20808
285	1286342 60 22154 23091 2.001960645327 2.002040645327 2 102 102 204 20808
286	1286402 60 22154 23091 2.001960645327 2.002040645327 2 102 102 204 20808
287	1286462 58 22155 23092 2.001960645327 2.002040645327 2 84 84 168 14112
300	1286520 168 22072 23617 2.001951706192 2.002078586192 6 1 1 6 6
301	1286688 240 21978 23391 2.001941521783 2.002061521783 8 102 102 816 83232
303	1286928 240 21979 23397 2.001941571783 2.002061571783 8 102 102 816 83232
304	1287168 240 21979 23397 2.001941571783 2.002061571783 8 102 102 816 83232
308	1287408 150 22197 23537 2.001962910535 2.002072190535 5 102 102 510 52020
309	1287558 150 22198 23538 2.001962960535 2.002072240535 5 102 102 510 52020
310	1287708 150 22198 23538 2.001962960535 2.002072240535 5 102 102 510 52020
311	1287858 145 22199 23540 2.001962960535 2.002072240535 5 84 84 420 35280
313	1288003 145 22933 23570 2.002028061783 2.002073821783 5 84 84 420 35280
314	1288148 150 22934 23571 2.002028061783 2.002073821783 5 102 102 510 52020
315	1288298 150 22934 23571 2.002028061783 2.002073821783 5 102 102 510 52020
316	1288448 280 22934 23571 2.002028061783 2.002073821783 10 0 1 5 5
317	1288728 150 22934 23571 2.002028061783 2.002073821783 5 102 102 510 52020
318	1288878 150 22934 23571 2.002028061783 2.002073821783 5 102 102 510 52020
319	1289028 280 22934 23571 2.002028061783 2.002073821783 10 0 1 5 5
320	1289308 150 22934 23571 2.002028061783 2.002073821783 5 102 102 510 52020
321	1289458 140 22934 23571 2.002028061783 2.002073821783 5 0 0 0 0
322	1289598 420 22934 23571 2.002028061783 2.002073821783 15 0 0 0 0
323	1290018 150 22934 23571 2.002028061783 2.002073821783 5 102 102 510 52020
324	1290168 150 22934 23571 2.002028061783 2.002073821783 5 102 102 510 52020
325	1290318 205 22005 23416 2.001942486749 2.002062486749 7 95 101 686 67256
327	1290523 203 22007 23418 2.001942486749 2.002062486749 7 84 84 588 49392
328	1290726 210 22008 23419 2.001942486749 2.002062486749 7 102 102 714 72828
329	1290936 210 22008 23419 2.001942486749 2.002062486749 7 102 102 714 72828
330	1291146 392 22008 23419 2.001942486749 2.002062486749 14 0 1 7 7
331	1291538 210 22008 23419 2.001942486749 2.002062486749 7 102 102 714 72828
332	1291748 196 22008 23419 2.001942486749 2.002062486749 7 0 0 0 0
337	1291944 56 22204 23124 2.00196377063 2.00204377063 2 24 25 49 1201
339	1292000 56 22206 23126 2.00196377063 2.00204377063 2 84 84 168 14112
340	1292056 58 22207 23127 2.00196377063 2.00204377063 2 102 102 204 20808
341	1292114 58 22207 23127 2.00196377063 2.00204377063 2 102 102 204 20808
342	1292172 108 22207 23127 2.00196377063 2.00204377063 4 0 1 2 2
343	1292280 58 22207 23127 2.00196377063 2.00204377063 2 102 102 204 20808
344	1292338 54 22207 23127 2.00196377063 2.00204377063 2 0 0 0 0
345	1292392 58 22209 23129 2.001963890069 2.002043890069 2 24 25 49 1201
347	1292450 58 22211 23131 2.001963890069 2.002043890069 2 84 84 168 14112
348	1292508 60 22212 23132 2.001963890069 2.002043890069 2 102 102 204 20808
349	1292568 60 22212 23132 2.001963890069 2.002043890069 2 102 102 204 20808
350	1292628 112 22212 23132 2.001963890069 2.002043890069 4 0 1 2 2
351	1292740 60 22212 23132 2.001963890069 2.002043890069 2 102 102 204 20808
352	1292800 56 22212 23132 2.001963890069 2.002043890069 2 0 0 0 0
353	1292856 58 22214 23133 2.001964317825 2.002044317825 2 24 25 49 1201
355	1292914 58 22216 23135 2.001964317825 2.002044317825 2 84 84 168 14112
356	1292972 60 22217 23136 2.001964317825 2.002044317825 2 102 102 204 20808
357	1293032 60 22217 23136 2.001964317825 2.002044317825 2 102 102 204 20808
358	1293092 112 22217 23136 2.001964317825 2.002044317825 4 0 1 2 2
359	1293204 60 22217 23136 2.001964317825 2.002044317825 2 102 102 204 20808
360	1293264 56 22217 23136 2.001964317825 2.002044317825 2 0 0 0 0
361	1293320 120 23030 23555 2.002036861783 2.002072861783 4 102 102 408 41616
362	1293440 120 23032 23556 2.002036911783 2.002072911783 4 102 102 408 41616
363	1293560 120 23032 23556 2.002036911783 2.002072911783 4 102 102 408 41616
364	1293680 116 23033 23557 2.002036911783 2.002072911783 4 84 84 336 28224
366	1293796 174 22125 23272 2.001955796192 2.002052740069 6 84 84 504 42336
367	1293970 180 22126 23273 2.001955796192 2.002052740069 6 102 102 612 62424
368	1294150 180 22126 23273 2.001955796192 2.002052740069 6 102 102 612 62424
369	1294330 336 22126 23316 2.001955796192 2.002055316192 12 0 1 6 6
370	1294666 180 22126 23273 2.001955796192 2.002052740069 6 102 102 612 62424
371	1294846 180 22126 23273 2.001955796192 2.002052740069 6 102 102 612 62424
372	1295026 336 22126 23316 2.001955796192 2.002055316192 12 0 1 6 6
373	1295362 180 22126 23316 2.001955796192 2.002055316192 6 102 102 612 62424
374	1295542 216 22126 23316 2.001955796192 2.002055316192 6 0 4.910865e-006 1.4973976e-005 6.1506009518708e-011
375	1295758 648 22126 23316 2.001955796192 2.002055316192 18 0 4.910865e-006 4.4921928e-005 1.8451802855612e-010
376	1296406 180 22126 23316 2.001955796192 2.002055316192 6 102 102 612 62424
377	1296586 180 22126 23316 2.001955796192 2.002055316192 6 102 102 612 62424
378	1296766 210 22057 23522 2.001951286749 2.002071286749 7 102 102 714 72828
379	1296976 210 22058 23528 2.001951336749 2.002071336749 7 102 102 714 72828
380	1297186 210 22058 23528 2.001951336749 2.002071336749 7 102 102 714 72828
381	1297396 58 22304 23251 2.00197257063 2.00205257063 2 102 102 204 20808
382	1297454 58 22305 23252 2.00197262063 2.00205262063 2 102 102 204 20808
383	1297512 58 22305 23252 2.00197262063 2.00205262063 2 102 102 204 20808
384	1297570 56 22306 23253 2.00197262063 2.00205262063 2 84 84 168 14112
397	1297626 60 22310 23258 2.001972690069 2.002052690069 2 102 102 204 20808
398	1297686 60 22316 23269 2.001972740069 2.002052740069 2 102 102 204 20808
399	1297746 60 22316 23269 2.001972740069 2.002052740069 2 102 102 204 20808
400	1297806 58 22317 23270 2.001972740069 2.002052740069 2 84 84 168 14112
413	1297864 60 22323 23275 2.001973117825 2.002053117825 2 102 102 204 20808
414	1297924 60 22324 23276 2.001973167825 2.002053167825 2 102 102 204 20808
415	1297984 60 22324 23276 2.001973167825 2.002053167825 2 102 102 204 20808
416	1298044 58 22325 23277 2.001973167825 2.002053167825 2 84 84 168 14112
429	1298102 180 22222 23444 2.001964596192 2.002064116192 6 102 102 612 62424
430	1298282 180 22223 23445 2.001964646192 2.002064166192 6 102 102 612 62424
431	1298462 180 22223 23445 2.001964646192 2.002064166192 6 102 102 612 62424
432	1298642 174 22224 23446 2.001964646192 2.002064166192 6 84 84 504 42336
447	1298816 321 21966 23386 2.001940236749 2.002060236749 11 40 1500 2208 2304192
448	1299137 328 21967 23387 2.001940236749 2.002060236749 11 58 1518 2406 2387244
449	1299465 328 21967 23387 2.001940236749 2.002060236749 11 64 1518 2424 2389440
450	1299793 682 21967 23387 2.001940236749 2.002060236749 24 7 11 222 2076
451	1300475 268 22373 23387 2.001978311783 2.002060236749 9 64 1518 2220 2368632
452	1300743 268 22373 23387 2.001978311783 2.002060236749 9 64 1518 2220 2368632
453	1301011 566 22251 23387 2.001967911783 2.002060236749 20 7 10 180 1634
454	1301577 328 22251 23338 2.001967911783 2.002056391783 11 64 1518 2424 2389440
455	1301905 433 22251 23338 2.001967911783 2.002056391783 11 7.808e-005 0.00020416 0.001904125238 3.4313652722479e-007
456	1302338 1299 22251 23338 2.001967911783 2.002056391783 33 7.808e-005 0.00020416 0.005712375714 1.0294095816744e-006
457	1303637 328 22251 23338 2.001967911783 2.002056391783 11 64 1518 2424 2389440
458	1303965 328 22251 23338 2.001967911783 2.002056391783 11 64 1518 2424 2389440
460	1304293 259 22201 23542 2.001962960535 2.002072240535 9 84 84 756 63504
461	1304552 268 22202 23543 2.001962960535 2.002072240535 9 102 102 918 93636
462	1304820 268 22202 23543 2.001962960535 2.002072240535 9 102 102 918 93636
463	1305088 446 22202 23543 2.001962960535 2.002072240535 16 0 2 14 20
464	1305534 268 22202 23543 2.001962960535 2.002072240535 9 102 102 918 93636
465	1305802 268 22202 23543 2.001962960535 2.002072240535 9 102 102 918 93636
466	1306070 446 22202 23543 2.001962960535 2.002072240535 16 0 2 14 20
467	1306516 210 22202 23539 2.001962960535 2.002072240535 7 102 102 714 72828
468	1306726 247 22202 23539 2.001962960535 2.002072240535 7 0 1.907271e-005 3.834523e-005 5.4577239630625e-010
469	1306973 741 22202 23539 2.001962960535 2.002072240535 21 0 1.907271e-005 0.00011503569 1.6373171889187e-009
470	1307714 210 22202 23539 2.001962960535 2.002072240535 7 102 102 714 72828
471	1307924 210 22202 23539 2.001962960535 2.002072240535 7 102 102 714 72828
488	1308134 328 22243 23319 2.001966951783 2.002055431783 11 64 1518 2424 2389440
489	1308462 328 22244 23320 2.001967001783 2.002055481783 11 64 1518 2424 2389440
490	1308790 328 22244 23320 2.001967001783 2.002055481783 11 64 1518 2424 2389440
491	1309118 321 22245 23321 2.001967001783 2.002055481783 11 46 1500 2226 2305740
505	1309439 210 21948 23521 2.001938640535 2.002071280535 7 102 102 714 72828
506	1309649 210 21949 23523 2.001938690535 2.002071330535 7 102 102 714 72828
507	1309859 210 21949 23523 2.001938690535 2.002071330535 7 102 102 714 72828
508	1310069 203 21950 23524 2.001938690535 2.002071330535 7 84 84 588 49392
509	1310272 174 22837 23577 2.002019211783 2.002074731783 6 84 84 504 42336
510	1310446 180 22838 23578 2.002019211783 2.002074731783 6 102 102 612 62424
511	1310626 180 22838 23578 2.002019211783 2.002074731783 6 102 102 612 62424
512	1310806 336 22838 23578 2.002019211783 2.002074731783 12 0 1 6 6
513	1311142 180 22838 23578 2.002019211783 2.002074731783 6 102 102 612 62424
514	1311322 180 22838 23578 2.002019211783 2.002074731783 6 102 102 612 62424
515	1311502 336 22838 23578 2.002019211783 2.002074731783 12 0 1 6 6
516	1311838 180 22838 23578 2.002019211783 2.002074731783 6 102 102 612 62424
517	1312018 168 22838 23578 2.002019211783 2.002074731783 6 0 0 0 0
518	1312186 504 22838 23578 2.002019211783 2.002074731783 18 0 0 0 0
519	1312690 180 22838 23578 2.002019211783 2.002074731783 6 102 102 612 62424
520	1312870 180 22838 23578 2.002019211783 2.002074731783 6 102 102 612 62424
525	1313050 150 22929 23565 2.002028011783 2.002073771783 5 102 102 510 52020
526	1313200 150 22930 23566 2.002028061783 2.002073821783 5 102 102 510 52020
527	1313350 150 22930 23566 2.002028061783 2.002073821783 5 102 102 510 52020
528	1313500 145 22931 23568 2.002028061783 2.002073821783 5 84 84 420 35280
530	1313645 377 21952 23526 2.001938690535 2.002071330535 13 84 84 1092 91728
531	1314022 390 21953 23527 2.001938690535 2.002071330535 13 102 102 1326 135252
532	1314412 390 21953 23527 2.001938690535 2.002071330535 13 102 102 1326 135252
533	1314802 789 21953 23527 2.001938690535 2.002071330535 28 4 11 208 1654
534	1315591 360 21953 23527 2.001938690535 2.002071330535 12 102 102 1224 124848
535	1315951 360 21953 23527 2.001938690535 2.002071330535 12 102 102 1224 124848
536	1316311 731 21953 23527 2.001938690535 2.002071330535 26 4 10 187 1433
537	1317042 420 22018 23517 2.001943666192 2.002070546192 14 102 102 1428 145656
538	1317462 557 22018 23517 2.001943666192 2.002070546192 14 7.3295657e-005 9.2815657e-005 0.00119175657 1.0220581800406e-007
539	1318019 1671 22018 23517 2.001943666192 2.002070546192 42 7.3295657e-005 9.2815657e-005 0.00357526971 3.0661745401217e-007
540	1319690 420 22018 23517 2.001943666192 2.002070546192 14 102 102 1428 145656
541	1320110 420 22018 23517 2.001943666192 2.002070546192 14 102 102 1428 145656
546	1320530 408 22247 23501 2.001967001783 2.002068726192 14 40 1500 2460 2325360
547	1320938 418 22248 23502 2.001967001783 2.002068726192 14 58 1518 2712 2418456
548	1321356 418 22248 23502 2.001967001783 2.002068726192 14 64 1518 2730 2420652
549	1321774 735 21930 23502 2.001935331826 2.002068726192 26 3 11 173 1333
550	1322509 328 22248 23021 2.001967001783 2.002035961783 11 64 1518 2424 2389440
551	1322837 328 22248 23021 2.001967001783 2.002035961783 11 64 1518 2424 2389440
552	1323165 561 21930 23021 2.001935331826 2.002035961783 20 3 10 110 670
553	1323726 268 21930 22677 2.001935331826 2.002004291826 9 64 1518 2220 2368632
554	1323994 369 21930 22677 2.001935331826 2.002004291826 9 3.7290043e-005 0.000163370043 0.001329050387 2.0998847359832e-007
555	1324363 1107 21930 22677 2.001935331826 2.002004291826 27 3.7290043e-005 0.000163370043 0.003987151161 6.2996542079495e-007
556	1325470 268 21930 22677 2.001935331826 2.002004291826 9 64 1518 2220 2368632
557	1325738 268 21930 22677 2.001935331826 2.002004291826 9 64 1518 2220 2368632
558	1326006 420 22011 23505 2.001942706192 2.002069586192 14 102 102 1428 145656
559	1326426 420 22012 23506 2.001942756192 2.002069636192 14 102 102 1428 145656
560	1326846 420 22012 23506 2.001942756192 2.002069636192 14 102 102 1428 145656
561	1327266 406 22014 23508 2.001942756192 2.002069636192 14 84 84 1176 98784
563	1327672 203 22742 23588 2.002010361783 2.002075641783 7 84 84 588 49392
564	1327875 210 22743 23589 2.002010361783 2.002075641783 7 102 102 714 72828
565	1328085 210 22743 23589 2.002010361783 2.002075641783 7 102 102 714 72828
566	1328295 392 22743 23589 2.002010361783 2.002075641783 14 0 1 7 7
567	1328687 210 22743 23589 2.002010361783 2.002075641783 7 102 102 714 72828
568	1328897 210 22743 23589 2.002010361783 2.002075641783 7 102 102 714 72828
569	1329107 392 22743 23589 2.002010361783 2.002075641783 14 0 1 7 7
570	1329499 210 22743 23589 2.002010361783 2.002075641783 7 102 102 714 72828
571	1329709 196 22743 23589 2.002010361783 2.002075641783 7 0 0 0 0
572	1329905 588 22743 23589 2.002010361783 2.002075641783 21 0 0 0 0
573	1330493 210 22743 23589 2.002010361783 2.002075641783 7 102 102 714 72828
574	1330703 210 22743 23589 2.002010361783 2.002075641783 7 102 102 714 72828
575	1330913 30 22818 22818 2.002018156192 2.002018156192 1 102 102 102 10404
576	1330943 30 22819 22819 2.002018156192 2.002018156192 1 102 102 102 10404
577	1330973 30 22820 22820 2.002018156192 2.002018156192 1 102 102 102 10404
578	1331003 30 22821 22821 2.002018156192 2.002018156192 1 102 102 102 10404
579	1331033 267 21923 22672 2.001934371826 2.002003331826 9 64 102 804 74712
580	1331300 267 21925 22674 2.001934471826 2.002003431826 9 64 102 804 74712
581	1331567 267 21925 22674 2.001934471826 2.002003431826 9 64 102 804 74712
582	1331834 267 21927 22676 2.001934471826 2.002003431826 9 64 102 804 74712
583	1332101 267 21927 22676 2.001934471826 2.002003431826 9 64 102 804 74712
584	1332368 421 21927 23597 2.001934471826 2.002076711826 15 2 10 93 655
585	1332789 177 23040 23597 2.002037031826 2.002076711826 6 64 102 498 43500
586	1332966 222 23040 23597 2.002037031826 2.002076711826 6 0.00011232 0.00011536 0.00068304 7.7771136e-008
597	1333188 180 22833 23572 2.002019161783 2.002074681783 6 102 102 612 62424
598	1333368 180 22834 23573 2.002019211783 2.002074731783 6 102 102 612 62424
599	1333548 180 22834 23573 2.002019211783 2.002074731783 6 102 102 612 62424
600	1333728 174 22835 23575 2.002019211783 2.002074731783 6 84 84 504 42336
601	1333902 178 23040 23597 2.002037031826 2.002076711826 6 64 1518 1914 2337420
604	1334080 178 23041 23598 2.002037081826 2.002076761826 6 64 1518 1914 2337420
605	1334258 178 23041 23598 2.002037081826 2.002076761826 6 64 1518 1914 2337420
612	1334436 176 23044 23601 2.002037081826 2.002076761826 6 54 1508 1854 2299740
613	1334612 203 22646 23482 2.002001511783 2.002066791783 7 84 84 588 49392
614	1334815 210 22647 23483 2.002001511783 2.002066791783 7 102 102 714 72828
615	1335025 210 22647 23483 2.002001511783 2.002066791783 7 102 102 714 72828
616	1335235 392 22647 23483 2.002001511783 2.002066791783 14 0 1 7 7
617	1335627 210 22647 23483 2.002001511783 2.002066791783 7 102 102 714 72828
618	1335837 210 22647 23483 2.002001511783 2.002066791783 7 102 102 714 72828
619	1336047 392 22647 23483 2.002001511783 2.002066791783 14 0 1 7 7
620	1336439 210 22647 23483 2.002001511783 2.002066791783 7 102 102 714 72828
621	1336649 196 22647 23483 2.002001511783 2.002066791783 7 0 0 0 0
622	1336845 588 22647 23483 2.002001511783 2.002066791783 21 0 0 0 0
623	1337433 210 22647 23483 2.002001511783 2.002066791783 7 102 102 714 72828
624	1337643 210 22647 23483 2.002001511783 2.002066791783 7 102 102 714 72828
626	1337853 319 22016 23510 2.001942756192 2.002069636192 11 84 84 924 77616
627	1338172 330 22017 23511 2.001942756192 2.002069636192 11 102 102 1122 114444
628	1338502 330 22017 23511 2.001942756192 2.002069636192 11 102 102 1122 114444
629	1338832 616 22017 23511 2.001942756192 2.002069636192 22 0 1 11 11
630	1339448 330 22017 23511 2.001942756192 2.002069636192 11 102 102 1122 114444
631	1339778 330 22017 23511 2.001942756192 2.002069636192 11 102 102 1122 114444
632	1340108 616 22017 23511 2.001942756192 2.002069636192 22 0 1 11 11
633	1340724 330 22017 23511 2.001942756192 2.002069636192 11 102 102 1122 114444
634	1341054 308 22017 23511 2.001942756192 2.002069636192 11 0 0 0 0
635	1341362 924 22017 23511 2.001942756192 2.002069636192 33 0 0 0 0
636	1342286 330 22017 23511 2.001942756192 2.002069636192 11 102 102 1122 114444
637	1342616 330 22017 23511 2.001942756192 2.002069636192 11 102 102 1122 114444
638	1342946 210 22738 23583 2.002010311783 2.002075591783 7 102 102 714 72828
639	1343156 210 22739 23584 2.002010361783 2.002075641783 7 102 102 714 72828
640	1343366 210 22739 23584 2.002010361783 2.002075641783 7 102 102 714 72828
641	1343576 203 22740 23586 2.002010361783 2.002075641783 7 84 84 588 49392
642	1343779 360 21982 23605 2.001941796192 2.002078436192 12 102 102 1224 124848
643	1344139 360 21983 23606 2.001941846192 2.002078486192 12 102 102 1224 124848
644	1344499 360 21983 23606 2.001941846192 2.002078486192 12 102 102 1224 124848
645	1344859 348 21985 23607 2.001941846192 2.002078486192 12 84 84 1008 84672
646	1345207 87 22639 23379 2.002001316192 2.002059876192 3 84 84 252 21168
647	1345294 90 22640 23380 2.002001316192 2.002059876192 3 102 102 306 31212
648	1345384 90 22640 23380 2.002001316192 2.002059876192 3 102 102 306 31212
649	1345474 168 22640 23380 2.002001316192 2.002059876192 6 0 1 3 3
650	1345642 90 22640 23380 2.002001316192 2.002059876192 3 102 102 306 31212
651	1345732 90 22640 23380 2.002001316192 2.002059876192 3 102 102 306 31212
652	1345822 168 22640 23380 2.002001316192 2.002059876192 6 0 1 3 3
653	1345990 90 22640 23380 2.002001316192 2.002059876192 3 102 102 306 31212
654	1346080 84 22640 23380 2.002001316192 2.002059876192 3 0 0 0 0
655	1346164 252 22640 23380 2.002001316192 2.002059876192 9 0 0 0 0
656	1346416 90 22640 23380 2.002001316192 2.002059876192 3 102 102 306 31212
657	1346506 90 22640 23380 2.002001316192 2.002059876192 3 102 102 306 31212
658	1346596 90 22731 23496 2.002010116192 2.002068676192 3 102 102 306 31212
659	1346686 90 22732 23497 2.002010166192 2.002068726192 3 102 102 306 31212
660	1346776 90 22732 23497 2.002010166192 2.002068726192 3 102 102 306 31212
661	1346866 87 22734 23499 2.002010166192 2.002068726192 3 84 84 252 21168
702	1346953 90 23170 23502 2.002045721783 2.002068726192 3 102 102 306 31212
706	1347043 60 21967 22148 2.001940236749 2.001960236749 2 102 102 204 20808
707	1347103 30 22524 22524 2.001991330535 2.001991330535 1 102 102 102 10404
708	1347133 87 21959 22382 2.001940076192 2.001979116192 3 55 58 169 9525
709	1347220 123 21959 22382 2.001940076192 2.001979116192 3 0.000786394409 0.000807354409 0.002400623227 1.9212836201373e-006
710	1347343 58 21959 22382 2.001940076192 2.001979116192 2 49 50 99 4901
