version 2
run PCE_Environment-0-20200924-15:05:38-5684
attr configname PCE_Environment
attr datetime 20200924-15:05:38
attr experiment PCE_Environment
attr inifile experiment.ini
attr iterationvars ""
attr iterationvarsf ""
attr measurement ""
attr network PCE_Environment
attr processid 5684
attr repetition 0
attr replication #0
attr resultdir results
attr runnumber 0
attr seedset 0
param **.visualizer.*.interfaceTableVisualizer.nodeFilter "\"not (*Switch* accessPoint)\""
param **.visualizer.*.packetDropVisualizer.displayPacketDrops true
param **.visualizer.*.packetDropVisualizer.labelFormat "\"%n/reason: %r\""
param **.visualizer.*.packetDropVisualizer.fadeOutTime 3s
param **.visualizer.*.networkRouteVisualizer.displayRoutes true
param **.visualizer.*.networkRouteVisualizer.packetFilter "\"*Flood\""
param **.visualizer.*.networkRouteVisualizer.fadeOutTime 2s
param **.ddosBot*.numPktGen 4
param **.ddosBot*.pg[*].localPort 1234
param **.ddosBot*.pg[*].destPort 1234
param **.ddosBot*.pg[*].startTime "2s+uniform(0.01ms, 0.05ms)"
param **.ddosBot*.pg[*].sendInterval 0.01ms
param **.ddosBot*.pg[0].packetType "\"UDP\""
param **.ddosBot*.pg[0].packetName "\"UDPFlood\""
param **.ddosBot*.pg[1].packetType "\"TCP_SYN\""
param **.ddosBot*.pg[1].packetName "\"SYNFlood\""
param **.ddosBot*.pg[2].packetType "\"TCP_SYNACK\""
param **.ddosBot*.pg[2].packetName "\"SYNACKFlood\""
param **.ddosBot*.pg[3].packetType "\"TCP_ACK\""
param **.ddosBot*.pg[3].packetName "\"ACKFlood\""
param **.ddosBot1.pg[*].destAddr "\"wirelessHost\""
param **.ddosBot2.pg[*].destAddr "\"mobileHost\""
param **.*Hos*.numApps 1
param **.*Hos*.app[*].typename "\"PingApp\""
param **.*Hos*.app[*].sendInterval 0.02ms
param **.*Hos*.app[*].startTime "2s+uniform(0.01ms, 0.05ms)"
param **.cloudServer*.numApps 1
param **.cloudServer*.app[*].typename "\"PingApp\""
param **.cloudServer*.app[*].sendInterval 0.08ms
param **.cloudServer*.app[*].startTime "2s+uniform(0.01ms, 0.05ms)"
param **.standardHost1.app[*].destAddr "\"wirelessHost\""
param **.standardHost2.app[*].destAddr "\"mobileHost\""
param **.standardHost3.app[*].destAddr "\"cloudServer1\""
param **.standardHost4.app[*].destAddr "\"cloudServer2\""
param **.cloudServer1.app[*].destAddr "\"wirelessHost\""
param **.cloudServer2.app[*].destAddr "\"mobileHost\""
param **.cloudServer3.app[*].destAddr "\"standardHost1\""
param **.cloudServer4.app[*].destAddr "\"standardHost2\""
param **.cloudServer5.app[*].destAddr "\"standardHost3\""
param **.cloudServer6.app[*].destAddr "\"standardHost4\""
param **.router*.eth[*].mac.queue.typename "\"EtherQosQueue\""
param **.router*.eth[*].mac.queue.dataQueue.typename "\"DropTailQueue\""
param **.router*.**.queue.packetCapacity 10
param **.visualizer.*.interfaceTableVisualizer.displayInterfaceTables true

vector 0 PCE_Environment.accessPoint.wlan[0].radio radioMode:vector ETV
attr interpolationmode sample-hold
attr source radioModeChanged
attr title "Radio mode, vector"
vector 1 PCE_Environment.accessPoint.wlan[0].radio radioChannel:vector ETV
attr interpolationmode sample-hold
attr source radioChannelChanged
attr title "Radio channel, vector"
vector 2 PCE_Environment.mobileHost.wlan[0].radio radioMode:vector ETV
attr interpolationmode sample-hold
attr source radioModeChanged
attr title "Radio mode, vector"
vector 3 PCE_Environment.mobileHost.wlan[0].radio radioChannel:vector ETV
attr interpolationmode sample-hold
attr source radioChannelChanged
attr title "Radio channel, vector"
vector 4 PCE_Environment.wirelessHost.wlan[0].radio radioMode:vector ETV
attr interpolationmode sample-hold
attr source radioModeChanged
attr title "Radio mode, vector"
vector 5 PCE_Environment.wirelessHost.wlan[0].radio radioChannel:vector ETV
attr interpolationmode sample-hold
attr source radioChannelChanged
attr title "Radio channel, vector"
vector 6 PCE_Environment.accessPoint.wlan[0].radio receptionState:vector ETV
attr interpolationmode sample-hold
attr source receptionStateChanged
attr title "Radio reception state, vector"
vector 7 PCE_Environment.mobileHost.wlan[0].radio receptionState:vector ETV
attr interpolationmode sample-hold
attr source receptionStateChanged
attr title "Radio reception state, vector"
vector 8 PCE_Environment.wirelessHost.wlan[0].radio receptionState:vector ETV
attr interpolationmode sample-hold
attr source receptionStateChanged
attr title "Radio reception state, vector"
vector 9 PCE_Environment.accessPoint.wlan[0].mac.dcf.recoveryProcedure contentionWindowChanged:vector ETV
attr interpolationmode sample-hold
attr title "contention window, vector"
vector 10 PCE_Environment.mobileHost.wlan[0].mac.dcf.recoveryProcedure contentionWindowChanged:vector ETV
attr interpolationmode sample-hold
attr title "contention window, vector"
vector 11 PCE_Environment.wirelessHost.wlan[0].mac.dcf.recoveryProcedure contentionWindowChanged:vector ETV
attr interpolationmode sample-hold
attr title "contention window, vector"
vector 12 PCE_Environment.wirelessHost.wlan[0].agent sentRequest:vector ETV
attr title "sent requests, vector"
vector 13 PCE_Environment.accessPoint.wlan[0].mac.dcf.channelAccess.pendingQueue packetPushed:vector(packetBytes) ETV
attr interpolationmode none
attr title "packet pushed, vector(packetBytes)"
vector 14 PCE_Environment.accessPoint.wlan[0].mac.dcf.channelAccess.pendingQueue queueLength:vector ETV
attr interpolationmode sample-hold
attr source "count(packetPushed) - count(packetPopped) - count(packetRemoved) - count(packetDropped)"
attr title "queue length, vector"
vector 15 PCE_Environment.accessPoint.wlan[0].mac.dcf.channelAccess.contention backoffPeriodGenerated:vector ETV
attr interpolationmode none
attr title "backoff periods, vector"
vector 16 PCE_Environment.accessPoint.wlan[0].mac.dcf.channelAccess.contention backoffActive:vector ETV
attr interpolationmode sample-hold
attr source count(backoffStarted)-count(backoffStopped)
attr title "backoff active, vector"
vector 17 PCE_Environment.accessPoint.wlan[0].mac.dcf.channelAccess.pendingQueue packetPopped:vector(packetBytes) ETV
attr interpolationmode none
attr title "packet popped, vector(packetBytes)"
vector 18 PCE_Environment.accessPoint.wlan[0].mac.dcf.channelAccess.pendingQueue queueingTime:vector ETV
attr interpolationmode none
attr source queueingTime(packetPopped)
attr title "queueing times, vector"
attr unit s
vector 19 PCE_Environment.accessPoint.wlan[0].mac.dcf.channelAccess.inProgressFrames queueLength:vector ETV
attr interpolationmode sample-hold
attr source "count(packetEnqueued) - count(packetDequeued)"
attr title "queue length, vector"
vector 20 PCE_Environment.accessPoint.wlan[0].mac.dcf datarateSelected:vector ETV
attr interpolationmode none
attr title "datarates selected, vector"
vector 21 PCE_Environment.accessPoint.wlan[0].mac packetSentToLower:vector(packetBytes) ETV
attr interpolationmode none
attr title "packets sent to lower layer, vector(packetBytes)"
vector 22 PCE_Environment.accessPoint.wlan[0].mac.dcf frameSequenceActive:vector ETV
attr interpolationmode sample-hold
attr source count(frameSequenceStarted)-count(frameSequenceFinished)
attr title "frame sequence active, vector"
vector 23 PCE_Environment.accessPoint.wlan[0].radio transmissionState:vector ETV
attr interpolationmode sample-hold
attr source transmissionStateChanged
attr title "Radio transmission state, vector"
vector 24 PCE_Environment.accessPoint.wlan[0].mac.dcf packetSentToPeer:vector(packetBytes) ETV
attr interpolationmode none
attr title "packets sent, vector(packetBytes)"
vector 25 PCE_Environment.accessPoint.wlan[0].mac.dcf packetSentToPeerMulticast:vector(packetBytes) ETV
attr interpolationmode none
attr source ieee80211Multicast(packetSentToPeer)
attr title "packets sent: multicast, vector(packetBytes)"
vector 26 PCE_Environment.accessPoint.wlan[0].mac.dcf packetSentToPeerBroadcast:vector(packetBytes) ETV
attr interpolationmode none
attr source ieee80211Broadcast(packetSentToPeer)
attr title "packets sent: broadcast , vector(packetBytes)"
vector 27 PCE_Environment.accessPoint.wlan[0].mac.dcf packetSentToPeerWithoutRetry:vector(packetBytes) ETV
attr interpolationmode none
attr source ieee80211NotRetry(packetSentToPeer)
attr title "packets sent: without retry, vector(packetBytes)"
vector 28 PCE_Environment.accessPoint.wlan[0].mac.dcf.channelAccess.inProgressFrames queueingTime:vector ETV
attr interpolationmode none
attr source queueingTime(packetDequeued)
attr title "queueing times, vector"
vector 29 PCE_Environment.mobileHost.wlan[0].mac packetReceivedFromLower:vector(packetBytes) ETV
attr interpolationmode none
attr title "packets received from lower layer, vector(packetBytes)"
vector 30 PCE_Environment.mobileHost.wlan[0].mac.dcf packetReceivedFromPeer:vector(packetBytes) ETV
attr interpolationmode none
attr title "packets received, vector(packetBytes)"
vector 31 PCE_Environment.mobileHost.wlan[0].mac.dcf packetReceivedFromPeerMulticast:vector(packetBytes) ETV
attr interpolationmode none
attr source ieee80211Multicast(packetReceivedFromPeer)
attr title "packets received: multicast, vector(packetBytes)"
vector 32 PCE_Environment.mobileHost.wlan[0].mac.dcf packetReceivedFromPeerBroadcast:vector(packetBytes) ETV
attr interpolationmode none
attr source ieee80211Broadcast(packetReceivedFromPeer)
attr title "packets received: broadcast, vector(packetBytes)"
vector 33 PCE_Environment.mobileHost.wlan[0].mac.dcf packetReceivedFromPeerWithoutRetry:vector(packetBytes) ETV
attr interpolationmode none
attr source ieee80211NotRetry(packetReceivedFromPeer)
attr title "packets received: without retry, vector(packetBytes)"
vector 34 PCE_Environment.wirelessHost.wlan[0].mac packetReceivedFromLower:vector(packetBytes) ETV
attr interpolationmode none
attr title "packets received from lower layer, vector(packetBytes)"
vector 35 PCE_Environment.wirelessHost.wlan[0].mac.dcf packetReceivedFromPeer:vector(packetBytes) ETV
attr interpolationmode none
attr title "packets received, vector(packetBytes)"
vector 36 PCE_Environment.wirelessHost.wlan[0].mac.dcf packetReceivedFromPeerMulticast:vector(packetBytes) ETV
attr interpolationmode none
attr source ieee80211Multicast(packetReceivedFromPeer)
attr title "packets received: multicast, vector(packetBytes)"
vector 37 PCE_Environment.wirelessHost.wlan[0].mac.dcf packetReceivedFromPeerBroadcast:vector(packetBytes) ETV
attr interpolationmode none
attr source ieee80211Broadcast(packetReceivedFromPeer)
attr title "packets received: broadcast, vector(packetBytes)"
vector 38 PCE_Environment.wirelessHost.wlan[0].mac.dcf packetReceivedFromPeerWithoutRetry:vector(packetBytes) ETV
attr interpolationmode none
attr source ieee80211NotRetry(packetReceivedFromPeer)
attr title "packets received: without retry, vector(packetBytes)"
vector 39 PCE_Environment.mobileHost.wlan[0].agent sentRequest:vector ETV
attr title "sent requests, vector"
vector 40 PCE_Environment.wirelessHost.wlan[0].mac.dcf.channelAccess.pendingQueue packetPushed:vector(packetBytes) ETV
attr interpolationmode none
attr title "packet pushed, vector(packetBytes)"
vector 41 PCE_Environment.wirelessHost.wlan[0].mac.dcf.channelAccess.pendingQueue queueLength:vector ETV
attr interpolationmode sample-hold
attr source "count(packetPushed) - count(packetPopped) - count(packetRemoved) - count(packetDropped)"
attr title "queue length, vector"
vector 42 PCE_Environment.wirelessHost.wlan[0].mac.dcf.channelAccess.contention backoffPeriodGenerated:vector ETV
attr interpolationmode none
attr title "backoff periods, vector"
vector 43 PCE_Environment.wirelessHost.wlan[0].mac.dcf.channelAccess.contention backoffActive:vector ETV
attr interpolationmode sample-hold
attr source count(backoffStarted)-count(backoffStopped)
attr title "backoff active, vector"
vector 44 PCE_Environment.wirelessHost.wlan[0].mac.dcf.channelAccess.pendingQueue packetPopped:vector(packetBytes) ETV
attr interpolationmode none
attr title "packet popped, vector(packetBytes)"
vector 45 PCE_Environment.wirelessHost.wlan[0].mac.dcf.channelAccess.pendingQueue queueingTime:vector ETV
attr interpolationmode none
attr source queueingTime(packetPopped)
attr title "queueing times, vector"
attr unit s
vector 46 PCE_Environment.wirelessHost.wlan[0].mac.dcf.channelAccess.inProgressFrames queueLength:vector ETV
attr interpolationmode sample-hold
attr source "count(packetEnqueued) - count(packetDequeued)"
attr title "queue length, vector"
vector 47 PCE_Environment.wirelessHost.wlan[0].mac.dcf datarateSelected:vector ETV
attr interpolationmode none
attr title "datarates selected, vector"
vector 48 PCE_Environment.wirelessHost.wlan[0].mac packetSentToLower:vector(packetBytes) ETV
attr interpolationmode none
attr title "packets sent to lower layer, vector(packetBytes)"
vector 49 PCE_Environment.wirelessHost.wlan[0].mac.dcf frameSequenceActive:vector ETV
attr interpolationmode sample-hold
attr source count(frameSequenceStarted)-count(frameSequenceFinished)
attr title "frame sequence active, vector"
vector 50 PCE_Environment.wirelessHost.wlan[0].radio transmissionState:vector ETV
attr interpolationmode sample-hold
attr source transmissionStateChanged
attr title "Radio transmission state, vector"
vector 51 PCE_Environment.wirelessHost.wlan[0].mac.dcf packetSentToPeer:vector(packetBytes) ETV
attr interpolationmode none
attr title "packets sent, vector(packetBytes)"
vector 52 PCE_Environment.wirelessHost.wlan[0].mac.dcf packetSentToPeerMulticast:vector(packetBytes) ETV
attr interpolationmode none
attr source ieee80211Multicast(packetSentToPeer)
attr title "packets sent: multicast, vector(packetBytes)"
vector 53 PCE_Environment.wirelessHost.wlan[0].mac.dcf packetSentToPeerBroadcast:vector(packetBytes) ETV
attr interpolationmode none
attr source ieee80211Broadcast(packetSentToPeer)
attr title "packets sent: broadcast , vector(packetBytes)"
vector 54 PCE_Environment.wirelessHost.wlan[0].mac.dcf packetSentToPeerWithoutRetry:vector(packetBytes) ETV
attr interpolationmode none
attr source ieee80211NotRetry(packetSentToPeer)
attr title "packets sent: without retry, vector(packetBytes)"
vector 55 PCE_Environment.wirelessHost.wlan[0].mac.dcf.channelAccess.inProgressFrames queueingTime:vector ETV
attr interpolationmode none
attr source queueingTime(packetDequeued)
attr title "queueing times, vector"
vector 56 PCE_Environment.accessPoint.wlan[0].mac packetReceivedFromLower:vector(packetBytes) ETV
attr interpolationmode none
attr title "packets received from lower layer, vector(packetBytes)"
vector 57 PCE_Environment.accessPoint.wlan[0].mac.dcf packetReceivedFromPeer:vector(packetBytes) ETV
attr interpolationmode none
attr title "packets received, vector(packetBytes)"
vector 58 PCE_Environment.accessPoint.wlan[0].mac.dcf packetReceivedFromPeerMulticast:vector(packetBytes) ETV
attr interpolationmode none
attr source ieee80211Multicast(packetReceivedFromPeer)
attr title "packets received: multicast, vector(packetBytes)"
vector 59 PCE_Environment.accessPoint.wlan[0].mac.dcf packetReceivedFromPeerBroadcast:vector(packetBytes) ETV
attr interpolationmode none
attr source ieee80211Broadcast(packetReceivedFromPeer)
attr title "packets received: broadcast, vector(packetBytes)"
vector 60 PCE_Environment.accessPoint.wlan[0].mac.dcf packetReceivedFromPeerWithoutRetry:vector(packetBytes) ETV
attr interpolationmode none
attr source ieee80211NotRetry(packetReceivedFromPeer)
attr title "packets received: without retry, vector(packetBytes)"
vector 61 PCE_Environment.accessPoint.wlan[0].mac.dcf packetSentToPeerUnicast:vector(packetBytes) ETV
attr interpolationmode none
attr source ieee80211Unicast(packetSentToPeer)
attr title "packets sent: unicast, vector(packetBytes)"
vector 62 PCE_Environment.accessPoint.wlan[0].mac.rx nav:vector ETV
attr interpolationmode linear
attr source navChanged
attr title "network allocation vector, vector"
vector 63 PCE_Environment.mobileHost.wlan[0].mac.rx nav:vector ETV
attr interpolationmode linear
attr source navChanged
attr title "network allocation vector, vector"
vector 64 PCE_Environment.mobileHost.wlan[0].mac.dcf packetDrop:vector(packetBytes) ETV
attr interpolationmode none
attr source packetDropped
attr title "packet drops, vector(packetBytes)"
vector 65 PCE_Environment.mobileHost.wlan[0].mac.dcf packetDropNotAddressedToUs:vector(packetBytes) ETV
attr interpolationmode none
attr source packetDropReasonIsNotAddressedToUs(packetDropped)
attr title "packet drops: not addressed to us, vector(packetBytes)"
vector 66 PCE_Environment.mobileHost.wlan[0].mac packetDrop:vector(packetBytes) ETV
attr interpolationmode none
attr source packetDropped
attr title "packet drops, vector(packetBytes)"
vector 67 PCE_Environment.mobileHost.wlan[0].mac packetDropNotAddressedToUs:vector(packetBytes) ETV
attr interpolationmode none
attr source packetDropReasonIsNotAddressedToUs(packetDropped)
attr title "packet drops: not addressed to us, vector(packetBytes)"
vector 68 PCE_Environment.wirelessHost.wlan[0].mac.dcf packetReceivedFromPeerUnicast:vector(packetBytes) ETV
attr interpolationmode none
attr source ieee80211Unicast(packetReceivedFromPeer)
attr title "packets received: unicast, vector(packetBytes)"
vector 69 PCE_Environment.wirelessHost.wlan[0].mac.dcf packetSentToPeerUnicast:vector(packetBytes) ETV
attr interpolationmode none
attr source ieee80211Unicast(packetSentToPeer)
attr title "packets sent: unicast, vector(packetBytes)"
vector 70 PCE_Environment.accessPoint.wlan[0].mac.dcf packetReceivedFromPeerUnicast:vector(packetBytes) ETV
attr interpolationmode none
attr source ieee80211Unicast(packetReceivedFromPeer)
attr title "packets received: unicast, vector(packetBytes)"
vector 71 PCE_Environment.mobileHost.wlan[0].mac.dcf.channelAccess.pendingQueue packetPushed:vector(packetBytes) ETV
attr interpolationmode none
attr title "packet pushed, vector(packetBytes)"
vector 72 PCE_Environment.mobileHost.wlan[0].mac.dcf.channelAccess.pendingQueue queueLength:vector ETV
attr interpolationmode sample-hold
attr source "count(packetPushed) - count(packetPopped) - count(packetRemoved) - count(packetDropped)"
attr title "queue length, vector"
vector 73 PCE_Environment.mobileHost.wlan[0].mac.dcf.channelAccess.contention backoffPeriodGenerated:vector ETV
attr interpolationmode none
attr title "backoff periods, vector"
vector 74 PCE_Environment.mobileHost.wlan[0].mac.dcf.channelAccess.contention backoffActive:vector ETV
attr interpolationmode sample-hold
attr source count(backoffStarted)-count(backoffStopped)
attr title "backoff active, vector"
vector 75 PCE_Environment.mobileHost.wlan[0].mac.dcf.channelAccess.pendingQueue packetPopped:vector(packetBytes) ETV
attr interpolationmode none
attr title "packet popped, vector(packetBytes)"
vector 76 PCE_Environment.mobileHost.wlan[0].mac.dcf.channelAccess.pendingQueue queueingTime:vector ETV
attr interpolationmode none
attr source queueingTime(packetPopped)
attr title "queueing times, vector"
attr unit s
vector 77 PCE_Environment.mobileHost.wlan[0].mac.dcf.channelAccess.inProgressFrames queueLength:vector ETV
attr interpolationmode sample-hold
attr source "count(packetEnqueued) - count(packetDequeued)"
attr title "queue length, vector"
vector 78 PCE_Environment.mobileHost.wlan[0].mac.dcf datarateSelected:vector ETV
attr interpolationmode none
attr title "datarates selected, vector"
vector 79 PCE_Environment.mobileHost.wlan[0].mac packetSentToLower:vector(packetBytes) ETV
attr interpolationmode none
attr title "packets sent to lower layer, vector(packetBytes)"
vector 80 PCE_Environment.mobileHost.wlan[0].mac.dcf frameSequenceActive:vector ETV
attr interpolationmode sample-hold
attr source count(frameSequenceStarted)-count(frameSequenceFinished)
attr title "frame sequence active, vector"
vector 81 PCE_Environment.mobileHost.wlan[0].radio transmissionState:vector ETV
attr interpolationmode sample-hold
attr source transmissionStateChanged
attr title "Radio transmission state, vector"
vector 82 PCE_Environment.mobileHost.wlan[0].mac.dcf packetSentToPeer:vector(packetBytes) ETV
attr interpolationmode none
attr title "packets sent, vector(packetBytes)"
vector 83 PCE_Environment.mobileHost.wlan[0].mac.dcf packetSentToPeerMulticast:vector(packetBytes) ETV
attr interpolationmode none
attr source ieee80211Multicast(packetSentToPeer)
attr title "packets sent: multicast, vector(packetBytes)"
vector 84 PCE_Environment.mobileHost.wlan[0].mac.dcf packetSentToPeerBroadcast:vector(packetBytes) ETV
attr interpolationmode none
attr source ieee80211Broadcast(packetSentToPeer)
attr title "packets sent: broadcast , vector(packetBytes)"
vector 85 PCE_Environment.mobileHost.wlan[0].mac.dcf packetSentToPeerWithoutRetry:vector(packetBytes) ETV
attr interpolationmode none
attr source ieee80211NotRetry(packetSentToPeer)
attr title "packets sent: without retry, vector(packetBytes)"
vector 86 PCE_Environment.mobileHost.wlan[0].mac.dcf.channelAccess.inProgressFrames queueingTime:vector ETV
attr interpolationmode none
attr source queueingTime(packetDequeued)
attr title "queueing times, vector"
vector 87 PCE_Environment.mobileHost.wlan[0].mac.dcf packetReceivedFromPeerUnicast:vector(packetBytes) ETV
attr interpolationmode none
attr source ieee80211Unicast(packetReceivedFromPeer)
attr title "packets received: unicast, vector(packetBytes)"
vector 88 PCE_Environment.wirelessHost.wlan[0].mac.rx nav:vector ETV
attr interpolationmode linear
attr source navChanged
attr title "network allocation vector, vector"
vector 89 PCE_Environment.wirelessHost.wlan[0].mac.dcf packetDrop:vector(packetBytes) ETV
attr interpolationmode none
attr source packetDropped
attr title "packet drops, vector(packetBytes)"
vector 90 PCE_Environment.wirelessHost.wlan[0].mac.dcf packetDropNotAddressedToUs:vector(packetBytes) ETV
attr interpolationmode none
attr source packetDropReasonIsNotAddressedToUs(packetDropped)
attr title "packet drops: not addressed to us, vector(packetBytes)"
vector 91 PCE_Environment.wirelessHost.wlan[0].mac packetDrop:vector(packetBytes) ETV
attr interpolationmode none
attr source packetDropped
attr title "packet drops, vector(packetBytes)"
vector 92 PCE_Environment.wirelessHost.wlan[0].mac packetDropNotAddressedToUs:vector(packetBytes) ETV
attr interpolationmode none
attr source packetDropReasonIsNotAddressedToUs(packetDropped)
attr title "packet drops: not addressed to us, vector(packetBytes)"
vector 93 PCE_Environment.mobileHost.wlan[0].mac.dcf packetSentToPeerUnicast:vector(packetBytes) ETV
attr interpolationmode none
attr source ieee80211Unicast(packetSentToPeer)
attr title "packets sent: unicast, vector(packetBytes)"
vector 94 PCE_Environment.wirelessHost.wlan[0].agent acceptConfirm:vector ETV
attr title "accepted confirms, vector"
vector 95 PCE_Environment.mobileHost.wlan[0].agent acceptConfirm:vector ETV
attr title "accepted confirms, vector"
vector 96 PCE_Environment.ddosBot2.ipv4.arp arpRequestSent:vector(packetBytes) ETV
attr source arpRequestSent
attr title "ARP request sent, vector(packetBytes)"
vector 97 PCE_Environment.ddosBot2.eth[0].encap encapPk:vector(packetBytes) ETV
attr interpolationmode none
attr source encapPk
attr title "packets encapsulated, vector(packetBytes)"
vector 98 PCE_Environment.ddosBot2.eth[0].mac packetReceivedFromUpper:vector(packetBytes) ETV
attr interpolationmode none
attr source packetReceivedFromUpper
attr title "packet bytes from higher layer, vector(packetBytes)"
vector 99 PCE_Environment.ddosBot2.eth[0].mac.queue packetPushed:vector(packetBytes) ETV
attr interpolationmode none
attr title "packet pushed, vector(packetBytes)"
vector 100 PCE_Environment.ddosBot2.eth[0].mac.queue queueLength:vector ETV
attr interpolationmode sample-hold
attr source "count(packetPushed) - count(packetPopped) - count(packetRemoved) - count(packetDropped)"
attr title "queue length, vector"
vector 101 PCE_Environment.ddosBot2.eth[0].mac.queue packetPopped:vector(packetBytes) ETV
attr interpolationmode none
attr title "packet popped, vector(packetBytes)"
vector 102 PCE_Environment.ddosBot2.eth[0].mac.queue queueingTime:vector ETV
attr interpolationmode none
attr source queueingTime(packetPopped)
attr title "queueing times, vector"
attr unit s
vector 103 PCE_Environment.ddosBot2.eth[0].mac txPk:vector(packetBytes) ETV
attr interpolationmode none
attr source packetSentToLower
attr title "packets transmitted, vector(packetBytes)"
vector 104 PCE_Environment.etherSwitch3.eth[3].mac rxPkOk:vector(packetBytes) ETV
attr interpolationmode none
attr source rxPkOk
attr title "packets received OK, vector(packetBytes)"
vector 105 PCE_Environment.etherSwitch3.eth[3].mac passedUpPk:vector(packetBytes) ETV
attr interpolationmode none
attr source packetSentToUpper
attr title "packets passed to higher layer, vector(packetBytes)"
vector 106 PCE_Environment.etherSwitch3.eth[0].mac packetReceivedFromUpper:vector(packetBytes) ETV
attr interpolationmode none
attr source packetReceivedFromUpper
attr title "packet bytes from higher layer, vector(packetBytes)"
vector 107 PCE_Environment.etherSwitch3.eth[0].mac.queue packetPushed:vector(packetBytes) ETV
attr interpolationmode none
attr title "packet pushed, vector(packetBytes)"
vector 108 PCE_Environment.etherSwitch3.eth[0].mac.queue queueLength:vector ETV
attr interpolationmode sample-hold
attr source "count(packetPushed) - count(packetPopped) - count(packetRemoved) - count(packetDropped)"
attr title "queue length, vector"
vector 109 PCE_Environment.etherSwitch3.eth[0].mac.queue packetPopped:vector(packetBytes) ETV
attr interpolationmode none
attr title "packet popped, vector(packetBytes)"
vector 110 PCE_Environment.etherSwitch3.eth[0].mac.queue queueingTime:vector ETV
attr interpolationmode none
attr source queueingTime(packetPopped)
attr title "queueing times, vector"
attr unit s
vector 111 PCE_Environment.etherSwitch3.eth[1].mac packetReceivedFromUpper:vector(packetBytes) ETV
attr interpolationmode none
attr source packetReceivedFromUpper
attr title "packet bytes from higher layer, vector(packetBytes)"
vector 112 PCE_Environment.etherSwitch3.eth[1].mac.queue packetPushed:vector(packetBytes) ETV
attr interpolationmode none
attr title "packet pushed, vector(packetBytes)"
vector 113 PCE_Environment.etherSwitch3.eth[1].mac.queue queueLength:vector ETV
attr interpolationmode sample-hold
attr source "count(packetPushed) - count(packetPopped) - count(packetRemoved) - count(packetDropped)"
attr title "queue length, vector"
vector 114 PCE_Environment.etherSwitch3.eth[1].mac.queue packetPopped:vector(packetBytes) ETV
attr interpolationmode none
attr title "packet popped, vector(packetBytes)"
vector 115 PCE_Environment.etherSwitch3.eth[1].mac.queue queueingTime:vector ETV
attr interpolationmode none
attr source queueingTime(packetPopped)
attr title "queueing times, vector"
attr unit s
vector 116 PCE_Environment.etherSwitch3.eth[2].mac packetReceivedFromUpper:vector(packetBytes) ETV
attr interpolationmode none
attr source packetReceivedFromUpper
attr title "packet bytes from higher layer, vector(packetBytes)"
vector 117 PCE_Environment.etherSwitch3.eth[2].mac.queue packetPushed:vector(packetBytes) ETV
attr interpolationmode none
attr title "packet pushed, vector(packetBytes)"
vector 118 PCE_Environment.etherSwitch3.eth[2].mac.queue queueLength:vector ETV
attr interpolationmode sample-hold
attr source "count(packetPushed) - count(packetPopped) - count(packetRemoved) - count(packetDropped)"
attr title "queue length, vector"
vector 119 PCE_Environment.etherSwitch3.eth[2].mac.queue packetPopped:vector(packetBytes) ETV
attr interpolationmode none
attr title "packet popped, vector(packetBytes)"
vector 120 PCE_Environment.etherSwitch3.eth[2].mac.queue queueingTime:vector ETV
attr interpolationmode none
attr source queueingTime(packetPopped)
attr title "queueing times, vector"
attr unit s
vector 121 PCE_Environment.etherSwitch3.eth[4].mac packetReceivedFromUpper:vector(packetBytes) ETV
attr interpolationmode none
attr source packetReceivedFromUpper
attr title "packet bytes from higher layer, vector(packetBytes)"
vector 122 PCE_Environment.etherSwitch3.eth[4].mac.queue packetPushed:vector(packetBytes) ETV
attr interpolationmode none
attr title "packet pushed, vector(packetBytes)"
vector 123 PCE_Environment.etherSwitch3.eth[4].mac.queue queueLength:vector ETV
attr interpolationmode sample-hold
attr source "count(packetPushed) - count(packetPopped) - count(packetRemoved) - count(packetDropped)"
attr title "queue length, vector"
vector 124 PCE_Environment.etherSwitch3.eth[4].mac.queue packetPopped:vector(packetBytes) ETV
attr interpolationmode none
attr title "packet popped, vector(packetBytes)"
vector 125 PCE_Environment.etherSwitch3.eth[4].mac.queue queueingTime:vector ETV
attr interpolationmode none
attr source queueingTime(packetPopped)
attr title "queueing times, vector"
attr unit s
vector 126 PCE_Environment.etherSwitch3.eth[0].mac txPk:vector(packetBytes) ETV
attr interpolationmode none
attr source packetSentToLower
attr title "packets transmitted, vector(packetBytes)"
vector 127 PCE_Environment.etherSwitch3.eth[1].mac txPk:vector(packetBytes) ETV
attr interpolationmode none
attr source packetSentToLower
attr title "packets transmitted, vector(packetBytes)"
vector 128 PCE_Environment.etherSwitch3.eth[2].mac txPk:vector(packetBytes) ETV
attr interpolationmode none
attr source packetSentToLower
attr title "packets transmitted, vector(packetBytes)"
vector 129 PCE_Environment.etherSwitch3.eth[4].mac txPk:vector(packetBytes) ETV
attr interpolationmode none
attr source packetSentToLower
attr title "packets transmitted, vector(packetBytes)"
vector 130 PCE_Environment.standardHost3.eth[0].mac rxPkOk:vector(packetBytes) ETV
attr interpolationmode none
attr source rxPkOk
attr title "packets received OK, vector(packetBytes)"
vector 131 PCE_Environment.standardHost3.eth[0].mac passedUpPk:vector(packetBytes) ETV
attr interpolationmode none
attr source packetSentToUpper
attr title "packets passed to higher layer, vector(packetBytes)"
vector 132 PCE_Environment.standardHost4.eth[0].mac rxPkOk:vector(packetBytes) ETV
attr interpolationmode none
attr source rxPkOk
attr title "packets received OK, vector(packetBytes)"
vector 133 PCE_Environment.standardHost4.eth[0].mac passedUpPk:vector(packetBytes) ETV
attr interpolationmode none
attr source packetSentToUpper
attr title "packets passed to higher layer, vector(packetBytes)"
vector 134 PCE_Environment.clientAgent2.eth[0].mac rxPkOk:vector(packetBytes) ETV
attr interpolationmode none
attr source rxPkOk
attr title "packets received OK, vector(packetBytes)"
vector 135 PCE_Environment.clientAgent2.eth[0].mac passedUpPk:vector(packetBytes) ETV
attr interpolationmode none
attr source packetSentToUpper
attr title "packets passed to higher layer, vector(packetBytes)"
vector 136 PCE_Environment.standardHost3.eth[0].encap decapPk:vector(packetBytes) ETV
attr interpolationmode none
attr source decapPk
attr title "packets decapsulated, vector(packetBytes)"
vector 137 PCE_Environment.standardHost4.eth[0].encap decapPk:vector(packetBytes) ETV
attr interpolationmode none
attr source decapPk
attr title "packets decapsulated, vector(packetBytes)"
vector 138 PCE_Environment.clientAgent2.eth[0].encap decapPk:vector(packetBytes) ETV
attr interpolationmode none
attr source decapPk
attr title "packets decapsulated, vector(packetBytes)"
vector 139 PCE_Environment.router2.eth[2].mac rxPkOk:vector(packetBytes) ETV
attr interpolationmode none
attr source rxPkOk
attr title "packets received OK, vector(packetBytes)"
vector 140 PCE_Environment.router2.eth[2].mac passedUpPk:vector(packetBytes) ETV
attr interpolationmode none
attr source packetSentToUpper
attr title "packets passed to higher layer, vector(packetBytes)"
vector 141 PCE_Environment.etherSwitch2.eth[3].mac rxPkOk:vector(packetBytes) ETV
attr interpolationmode none
attr source rxPkOk
attr title "packets received OK, vector(packetBytes)"
vector 142 PCE_Environment.etherSwitch2.eth[3].mac passedUpPk:vector(packetBytes) ETV
attr interpolationmode none
attr source packetSentToUpper
attr title "packets passed to higher layer, vector(packetBytes)"
vector 143 PCE_Environment.router2.eth[2].encap decapPk:vector(packetBytes) ETV
attr interpolationmode none
attr source decapPk
attr title "packets decapsulated, vector(packetBytes)"
vector 144 PCE_Environment.router2.ipv4.arp arpReplySent:vector(packetBytes) ETV
attr source arpReplySent
attr title "ARP replies sent, vector(packetBytes)"
vector 145 PCE_Environment.etherSwitch2.eth[0].mac packetReceivedFromUpper:vector(packetBytes) ETV
attr interpolationmode none
attr source packetReceivedFromUpper
attr title "packet bytes from higher layer, vector(packetBytes)"
vector 146 PCE_Environment.etherSwitch2.eth[0].mac.queue packetPushed:vector(packetBytes) ETV
attr interpolationmode none
attr title "packet pushed, vector(packetBytes)"
vector 147 PCE_Environment.etherSwitch2.eth[0].mac.queue queueLength:vector ETV
attr interpolationmode sample-hold
attr source "count(packetPushed) - count(packetPopped) - count(packetRemoved) - count(packetDropped)"
attr title "queue length, vector"
vector 148 PCE_Environment.etherSwitch2.eth[0].mac.queue packetPopped:vector(packetBytes) ETV
attr interpolationmode none
attr title "packet popped, vector(packetBytes)"
vector 149 PCE_Environment.etherSwitch2.eth[0].mac.queue queueingTime:vector ETV
attr interpolationmode none
attr source queueingTime(packetPopped)
attr title "queueing times, vector"
attr unit s
vector 150 PCE_Environment.etherSwitch2.eth[1].mac packetReceivedFromUpper:vector(packetBytes) ETV
attr interpolationmode none
attr source packetReceivedFromUpper
attr title "packet bytes from higher layer, vector(packetBytes)"
vector 151 PCE_Environment.etherSwitch2.eth[1].mac.queue packetPushed:vector(packetBytes) ETV
attr interpolationmode none
attr title "packet pushed, vector(packetBytes)"
vector 152 PCE_Environment.etherSwitch2.eth[1].mac.queue queueLength:vector ETV
attr interpolationmode sample-hold
attr source "count(packetPushed) - count(packetPopped) - count(packetRemoved) - count(packetDropped)"
attr title "queue length, vector"
vector 153 PCE_Environment.etherSwitch2.eth[1].mac.queue packetPopped:vector(packetBytes) ETV
attr interpolationmode none
attr title "packet popped, vector(packetBytes)"
vector 154 PCE_Environment.etherSwitch2.eth[1].mac.queue queueingTime:vector ETV
attr interpolationmode none
attr source queueingTime(packetPopped)
attr title "queueing times, vector"
attr unit s
vector 155 PCE_Environment.etherSwitch2.eth[2].mac packetReceivedFromUpper:vector(packetBytes) ETV
attr interpolationmode none
attr source packetReceivedFromUpper
attr title "packet bytes from higher layer, vector(packetBytes)"
vector 156 PCE_Environment.etherSwitch2.eth[2].mac.queue packetPushed:vector(packetBytes) ETV
attr interpolationmode none
attr title "packet pushed, vector(packetBytes)"
vector 157 PCE_Environment.etherSwitch2.eth[2].mac.queue queueLength:vector ETV
attr interpolationmode sample-hold
attr source "count(packetPushed) - count(packetPopped) - count(packetRemoved) - count(packetDropped)"
attr title "queue length, vector"
vector 158 PCE_Environment.etherSwitch2.eth[2].mac.queue packetPopped:vector(packetBytes) ETV
attr interpolationmode none
attr title "packet popped, vector(packetBytes)"
vector 159 PCE_Environment.etherSwitch2.eth[2].mac.queue queueingTime:vector ETV
attr interpolationmode none
attr source queueingTime(packetPopped)
attr title "queueing times, vector"
attr unit s
vector 160 PCE_Environment.router2.eth[2].encap encapPk:vector(packetBytes) ETV
attr interpolationmode none
attr source encapPk
attr title "packets encapsulated, vector(packetBytes)"
vector 161 PCE_Environment.router2.eth[2].mac packetReceivedFromUpper:vector(packetBytes) ETV
attr interpolationmode none
attr source packetReceivedFromUpper
attr title "packet bytes from higher layer, vector(packetBytes)"
vector 162 PCE_Environment.router2.eth[2].mac.queue packetPushed:vector(packetBytes) ETV
attr interpolationmode none
attr source localSignal(packetPushed)
attr title "packets pushed, vector(packetBytes)"
vector 163 PCE_Environment.router2.eth[2].mac.queue queueLength:vector ETV
attr interpolationmode sample-hold
attr source "count(localSignal(packetPushed)) - count(localSignal(packetPopped)) - count(localSignal(packetRemoved)) - count(packetDropped)"
attr title "queue length, vector"
vector 164 PCE_Environment.router2.eth[2].mac.queue.classifier packetPushed:vector(packetBytes) ETV
attr interpolationmode none
attr title "packets pushed, vector(packetBytes)"
vector 165 PCE_Environment.router2.eth[2].mac.queue.dataQueue packetPushed:vector(packetBytes) ETV
attr interpolationmode none
attr title "packet pushed, vector(packetBytes)"
vector 166 PCE_Environment.router2.eth[2].mac.queue.dataQueue queueLength:vector ETV
attr interpolationmode sample-hold
attr source "count(packetPushed) - count(packetPopped) - count(packetRemoved) - count(packetDropped)"
attr title "queue length, vector"
vector 167 PCE_Environment.router2.eth[2].mac.queue.dataQueue packetPopped:vector(packetBytes) ETV
attr interpolationmode none
attr title "packet popped, vector(packetBytes)"
vector 168 PCE_Environment.router2.eth[2].mac.queue.dataQueue queueingTime:vector ETV
attr interpolationmode none
attr source queueingTime(packetPopped)
attr title "queueing times, vector"
attr unit s
vector 169 PCE_Environment.router2.eth[2].mac.queue queueingTime:vector ETV
attr interpolationmode none
attr source queueingTime(packetPopped)
attr title "queueing times, vector"
attr unit s
vector 170 PCE_Environment.router2.eth[2].mac.queue.scheduler packetPopped:vector(packetBytes) ETV
attr interpolationmode none
attr title "packets popped, vector(packetBytes)"
vector 171 PCE_Environment.router2.eth[2].mac.queue packetPopped:vector(packetBytes) ETV
attr interpolationmode none
attr source localSignal(packetPopped)
attr title "packets popped, vector(packetBytes)"
vector 172 PCE_Environment.ddosBot1.ipv4.arp arpRequestSent:vector(packetBytes) ETV
attr source arpRequestSent
attr title "ARP request sent, vector(packetBytes)"
vector 173 PCE_Environment.ddosBot1.eth[0].encap encapPk:vector(packetBytes) ETV
attr interpolationmode none
attr source encapPk
attr title "packets encapsulated, vector(packetBytes)"
vector 174 PCE_Environment.ddosBot1.eth[0].mac packetReceivedFromUpper:vector(packetBytes) ETV
attr interpolationmode none
attr source packetReceivedFromUpper
attr title "packet bytes from higher layer, vector(packetBytes)"
vector 175 PCE_Environment.ddosBot1.eth[0].mac.queue packetPushed:vector(packetBytes) ETV
attr interpolationmode none
attr title "packet pushed, vector(packetBytes)"
vector 176 PCE_Environment.ddosBot1.eth[0].mac.queue queueLength:vector ETV
attr interpolationmode sample-hold
attr source "count(packetPushed) - count(packetPopped) - count(packetRemoved) - count(packetDropped)"
attr title "queue length, vector"
vector 177 PCE_Environment.ddosBot1.eth[0].mac.queue packetPopped:vector(packetBytes) ETV
attr interpolationmode none
attr title "packet popped, vector(packetBytes)"
vector 178 PCE_Environment.ddosBot1.eth[0].mac.queue queueingTime:vector ETV
attr interpolationmode none
attr source queueingTime(packetPopped)
attr title "queueing times, vector"
attr unit s
vector 179 PCE_Environment.cloudServer6.app[0] pingTxSeq:vector ETV
attr interpolationmode none
attr title "ping tx seq, vector"
vector 180 PCE_Environment.cloudServer6.ipv4.arp arpRequestSent:vector(packetBytes) ETV
attr source arpRequestSent
attr title "ARP request sent, vector(packetBytes)"
vector 181 PCE_Environment.cloudServer6.eth[0].encap encapPk:vector(packetBytes) ETV
attr interpolationmode none
attr source encapPk
attr title "packets encapsulated, vector(packetBytes)"
vector 182 PCE_Environment.cloudServer6.eth[0].mac packetReceivedFromUpper:vector(packetBytes) ETV
attr interpolationmode none
attr source packetReceivedFromUpper
attr title "packet bytes from higher layer, vector(packetBytes)"
vector 183 PCE_Environment.cloudServer6.eth[0].mac.queue packetPushed:vector(packetBytes) ETV
attr interpolationmode none
attr title "packet pushed, vector(packetBytes)"
vector 184 PCE_Environment.cloudServer6.eth[0].mac.queue queueLength:vector ETV
attr interpolationmode sample-hold
attr source "count(packetPushed) - count(packetPopped) - count(packetRemoved) - count(packetDropped)"
attr title "queue length, vector"
vector 185 PCE_Environment.cloudServer6.eth[0].mac.queue packetPopped:vector(packetBytes) ETV
attr interpolationmode none
attr title "packet popped, vector(packetBytes)"
vector 186 PCE_Environment.cloudServer6.eth[0].mac.queue queueingTime:vector ETV
attr interpolationmode none
attr source queueingTime(packetPopped)
attr title "queueing times, vector"
attr unit s
vector 187 PCE_Environment.standardHost3.app[0] pingTxSeq:vector ETV
attr interpolationmode none
attr title "ping tx seq, vector"
vector 188 PCE_Environment.standardHost3.ipv4.arp arpRequestSent:vector(packetBytes) ETV
attr source arpRequestSent
attr title "ARP request sent, vector(packetBytes)"
vector 189 PCE_Environment.standardHost3.eth[0].encap encapPk:vector(packetBytes) ETV
attr interpolationmode none
attr source encapPk
attr title "packets encapsulated, vector(packetBytes)"
vector 190 PCE_Environment.standardHost3.eth[0].mac packetReceivedFromUpper:vector(packetBytes) ETV
attr interpolationmode none
attr source packetReceivedFromUpper
attr title "packet bytes from higher layer, vector(packetBytes)"
vector 191 PCE_Environment.standardHost3.eth[0].mac.queue packetPushed:vector(packetBytes) ETV
attr interpolationmode none
attr title "packet pushed, vector(packetBytes)"
vector 192 PCE_Environment.standardHost3.eth[0].mac.queue queueLength:vector ETV
attr interpolationmode sample-hold
attr source "count(packetPushed) - count(packetPopped) - count(packetRemoved) - count(packetDropped)"
attr title "queue length, vector"
vector 193 PCE_Environment.standardHost3.eth[0].mac.queue packetPopped:vector(packetBytes) ETV
attr interpolationmode none
attr title "packet popped, vector(packetBytes)"
vector 194 PCE_Environment.standardHost3.eth[0].mac.queue queueingTime:vector ETV
attr interpolationmode none
attr source queueingTime(packetPopped)
attr title "queueing times, vector"
attr unit s
vector 195 PCE_Environment.etherSwitch2.eth[0].mac txPk:vector(packetBytes) ETV
attr interpolationmode none
attr source packetSentToLower
attr title "packets transmitted, vector(packetBytes)"
vector 196 PCE_Environment.etherSwitch2.eth[1].mac txPk:vector(packetBytes) ETV
attr interpolationmode none
attr source packetSentToLower
attr title "packets transmitted, vector(packetBytes)"
vector 197 PCE_Environment.etherSwitch2.eth[2].mac txPk:vector(packetBytes) ETV
attr interpolationmode none
attr source packetSentToLower
attr title "packets transmitted, vector(packetBytes)"
vector 198 PCE_Environment.router2.eth[2].mac txPk:vector(packetBytes) ETV
attr interpolationmode none
attr source packetSentToLower
attr title "packets transmitted, vector(packetBytes)"
vector 199 PCE_Environment.standardHost1.eth[0].mac rxPkOk:vector(packetBytes) ETV
attr interpolationmode none
attr source rxPkOk
attr title "packets received OK, vector(packetBytes)"
vector 200 PCE_Environment.standardHost1.eth[0].mac passedUpPk:vector(packetBytes) ETV
attr interpolationmode none
attr source packetSentToUpper
attr title "packets passed to higher layer, vector(packetBytes)"
vector 201 PCE_Environment.standardHost2.eth[0].mac rxPkOk:vector(packetBytes) ETV
attr interpolationmode none
attr source rxPkOk
attr title "packets received OK, vector(packetBytes)"
vector 202 PCE_Environment.standardHost2.eth[0].mac passedUpPk:vector(packetBytes) ETV
attr interpolationmode none
attr source packetSentToUpper
attr title "packets passed to higher layer, vector(packetBytes)"
vector 203 PCE_Environment.ddosBot1.eth[0].mac rxPkOk:vector(packetBytes) ETV
attr interpolationmode none
attr source rxPkOk
attr title "packets received OK, vector(packetBytes)"
vector 204 PCE_Environment.ddosBot1.eth[0].mac passedUpPk:vector(packetBytes) ETV
attr interpolationmode none
attr source packetSentToUpper
attr title "packets passed to higher layer, vector(packetBytes)"
vector 205 PCE_Environment.standardHost1.eth[0].encap decapPk:vector(packetBytes) ETV
attr interpolationmode none
attr source decapPk
attr title "packets decapsulated, vector(packetBytes)"
vector 206 PCE_Environment.standardHost2.eth[0].encap decapPk:vector(packetBytes) ETV
attr interpolationmode none
attr source decapPk
attr title "packets decapsulated, vector(packetBytes)"
vector 207 PCE_Environment.ddosBot1.eth[0].encap decapPk:vector(packetBytes) ETV
attr interpolationmode none
attr source decapPk
attr title "packets decapsulated, vector(packetBytes)"
vector 208 PCE_Environment.etherSwitch3.eth[4].mac rxPkOk:vector(packetBytes) ETV
attr interpolationmode none
attr source rxPkOk
attr title "packets received OK, vector(packetBytes)"
vector 209 PCE_Environment.etherSwitch3.eth[4].mac passedUpPk:vector(packetBytes) ETV
attr interpolationmode none
attr source packetSentToUpper
attr title "packets passed to higher layer, vector(packetBytes)"
vector 210 PCE_Environment.etherSwitch3.eth[3].mac packetReceivedFromUpper:vector(packetBytes) ETV
attr interpolationmode none
attr source packetReceivedFromUpper
attr title "packet bytes from higher layer, vector(packetBytes)"
vector 211 PCE_Environment.etherSwitch3.eth[3].mac.queue packetPushed:vector(packetBytes) ETV
attr interpolationmode none
attr title "packet pushed, vector(packetBytes)"
vector 212 PCE_Environment.etherSwitch3.eth[3].mac.queue queueLength:vector ETV
attr interpolationmode sample-hold
attr source "count(packetPushed) - count(packetPopped) - count(packetRemoved) - count(packetDropped)"
attr title "queue length, vector"
vector 213 PCE_Environment.etherSwitch3.eth[3].mac.queue packetPopped:vector(packetBytes) ETV
attr interpolationmode none
attr title "packet popped, vector(packetBytes)"
vector 214 PCE_Environment.etherSwitch3.eth[3].mac.queue queueingTime:vector ETV
attr interpolationmode none
attr source queueingTime(packetPopped)
attr title "queueing times, vector"
attr unit s
vector 215 PCE_Environment.ddosBot1.eth[0].mac txPk:vector(packetBytes) ETV
attr interpolationmode none
attr source packetSentToLower
attr title "packets transmitted, vector(packetBytes)"
vector 216 PCE_Environment.standardHost2.app[0] pingTxSeq:vector ETV
attr interpolationmode none
attr title "ping tx seq, vector"
vector 217 PCE_Environment.standardHost2.ipv4.arp arpRequestSent:vector(packetBytes) ETV
attr source arpRequestSent
attr title "ARP request sent, vector(packetBytes)"
vector 218 PCE_Environment.standardHost2.eth[0].encap encapPk:vector(packetBytes) ETV
attr interpolationmode none
attr source encapPk
attr title "packets encapsulated, vector(packetBytes)"
vector 219 PCE_Environment.standardHost2.eth[0].mac packetReceivedFromUpper:vector(packetBytes) ETV
attr interpolationmode none
attr source packetReceivedFromUpper
attr title "packet bytes from higher layer, vector(packetBytes)"
vector 220 PCE_Environment.standardHost2.eth[0].mac.queue packetPushed:vector(packetBytes) ETV
attr interpolationmode none
attr title "packet pushed, vector(packetBytes)"
vector 221 PCE_Environment.standardHost2.eth[0].mac.queue queueLength:vector ETV
attr interpolationmode sample-hold
attr source "count(packetPushed) - count(packetPopped) - count(packetRemoved) - count(packetDropped)"
attr title "queue length, vector"
vector 222 PCE_Environment.standardHost2.eth[0].mac.queue packetPopped:vector(packetBytes) ETV
attr interpolationmode none
attr title "packet popped, vector(packetBytes)"
vector 223 PCE_Environment.standardHost2.eth[0].mac.queue queueingTime:vector ETV
attr interpolationmode none
attr source queueingTime(packetPopped)
attr title "queueing times, vector"
attr unit s
vector 224 PCE_Environment.etherSwitch2.eth[2].mac rxPkOk:vector(packetBytes) ETV
attr interpolationmode none
attr source rxPkOk
attr title "packets received OK, vector(packetBytes)"
vector 225 PCE_Environment.etherSwitch2.eth[2].mac passedUpPk:vector(packetBytes) ETV
attr interpolationmode none
attr source packetSentToUpper
attr title "packets passed to higher layer, vector(packetBytes)"
vector 226 PCE_Environment.etherSwitch2.eth[3].mac packetReceivedFromUpper:vector(packetBytes) ETV
attr interpolationmode none
attr source packetReceivedFromUpper
attr title "packet bytes from higher layer, vector(packetBytes)"
vector 227 PCE_Environment.etherSwitch2.eth[3].mac.queue packetPushed:vector(packetBytes) ETV
attr interpolationmode none
attr title "packet pushed, vector(packetBytes)"
vector 228 PCE_Environment.etherSwitch2.eth[3].mac.queue queueLength:vector ETV
attr interpolationmode sample-hold
attr source "count(packetPushed) - count(packetPopped) - count(packetRemoved) - count(packetDropped)"
attr title "queue length, vector"
vector 229 PCE_Environment.etherSwitch2.eth[3].mac.queue packetPopped:vector(packetBytes) ETV
attr interpolationmode none
attr title "packet popped, vector(packetBytes)"
vector 230 PCE_Environment.etherSwitch2.eth[3].mac.queue queueingTime:vector ETV
attr interpolationmode none
attr source queueingTime(packetPopped)
attr title "queueing times, vector"
attr unit s
vector 231 PCE_Environment.cloudServer4.app[0] pingTxSeq:vector ETV
attr interpolationmode none
attr title "ping tx seq, vector"
vector 232 PCE_Environment.cloudServer4.ipv4.arp arpRequestSent:vector(packetBytes) ETV
attr source arpRequestSent
attr title "ARP request sent, vector(packetBytes)"
vector 233 PCE_Environment.cloudServer4.eth[0].encap encapPk:vector(packetBytes) ETV
attr interpolationmode none
attr source encapPk
attr title "packets encapsulated, vector(packetBytes)"
vector 234 PCE_Environment.cloudServer4.eth[0].mac packetReceivedFromUpper:vector(packetBytes) ETV
attr interpolationmode none
attr source packetReceivedFromUpper
attr title "packet bytes from higher layer, vector(packetBytes)"
vector 235 PCE_Environment.cloudServer4.eth[0].mac.queue packetPushed:vector(packetBytes) ETV
attr interpolationmode none
attr title "packet pushed, vector(packetBytes)"
vector 236 PCE_Environment.cloudServer4.eth[0].mac.queue queueLength:vector ETV
attr interpolationmode sample-hold
attr source "count(packetPushed) - count(packetPopped) - count(packetRemoved) - count(packetDropped)"
attr title "queue length, vector"
vector 237 PCE_Environment.cloudServer4.eth[0].mac.queue packetPopped:vector(packetBytes) ETV
attr interpolationmode none
attr title "packet popped, vector(packetBytes)"
vector 238 PCE_Environment.cloudServer4.eth[0].mac.queue queueingTime:vector ETV
attr interpolationmode none
attr source queueingTime(packetPopped)
attr title "queueing times, vector"
attr unit s
vector 239 PCE_Environment.cloudServer6.eth[0].mac txPk:vector(packetBytes) ETV
attr interpolationmode none
attr source packetSentToLower
attr title "packets transmitted, vector(packetBytes)"
vector 240 PCE_Environment.standardHost4.app[0] pingTxSeq:vector ETV
attr interpolationmode none
attr title "ping tx seq, vector"
vector 241 PCE_Environment.standardHost4.ipv4.arp arpRequestSent:vector(packetBytes) ETV
attr source arpRequestSent
attr title "ARP request sent, vector(packetBytes)"
vector 242 PCE_Environment.standardHost4.eth[0].encap encapPk:vector(packetBytes) ETV
attr interpolationmode none
attr source encapPk
attr title "packets encapsulated, vector(packetBytes)"
vector 243 PCE_Environment.standardHost4.eth[0].mac packetReceivedFromUpper:vector(packetBytes) ETV
attr interpolationmode none
attr source packetReceivedFromUpper
attr title "packet bytes from higher layer, vector(packetBytes)"
vector 244 PCE_Environment.standardHost4.eth[0].mac.queue packetPushed:vector(packetBytes) ETV
attr interpolationmode none
attr title "packet pushed, vector(packetBytes)"
vector 245 PCE_Environment.standardHost4.eth[0].mac.queue queueLength:vector ETV
attr interpolationmode sample-hold
attr source "count(packetPushed) - count(packetPopped) - count(packetRemoved) - count(packetDropped)"
attr title "queue length, vector"
vector 246 PCE_Environment.standardHost4.eth[0].mac.queue packetPopped:vector(packetBytes) ETV
attr interpolationmode none
attr title "packet popped, vector(packetBytes)"
vector 247 PCE_Environment.standardHost4.eth[0].mac.queue queueingTime:vector ETV
attr interpolationmode none
attr source queueingTime(packetPopped)
attr title "queueing times, vector"
attr unit s
vector 248 PCE_Environment.router6.eth[2].mac rxPkOk:vector(packetBytes) ETV
attr interpolationmode none
attr source rxPkOk
attr title "packets received OK, vector(packetBytes)"
vector 249 PCE_Environment.router6.eth[2].mac passedUpPk:vector(packetBytes) ETV
attr interpolationmode none
attr source packetSentToUpper
attr title "packets passed to higher layer, vector(packetBytes)"
vector 250 PCE_Environment.router6.eth[2].encap decapPk:vector(packetBytes) ETV
attr interpolationmode none
attr source decapPk
attr title "packets decapsulated, vector(packetBytes)"
vector 251 PCE_Environment.router6.ipv4.arp arpReplySent:vector(packetBytes) ETV
attr source arpReplySent
attr title "ARP replies sent, vector(packetBytes)"
vector 252 PCE_Environment.router6.eth[2].encap encapPk:vector(packetBytes) ETV
attr interpolationmode none
attr source encapPk
attr title "packets encapsulated, vector(packetBytes)"
vector 253 PCE_Environment.router6.eth[2].mac packetReceivedFromUpper:vector(packetBytes) ETV
attr interpolationmode none
attr source packetReceivedFromUpper
attr title "packet bytes from higher layer, vector(packetBytes)"
vector 254 PCE_Environment.router6.eth[2].mac.queue packetPushed:vector(packetBytes) ETV
attr interpolationmode none
attr source localSignal(packetPushed)
attr title "packets pushed, vector(packetBytes)"
vector 255 PCE_Environment.router6.eth[2].mac.queue queueLength:vector ETV
attr interpolationmode sample-hold
attr source "count(localSignal(packetPushed)) - count(localSignal(packetPopped)) - count(localSignal(packetRemoved)) - count(packetDropped)"
attr title "queue length, vector"
vector 256 PCE_Environment.router6.eth[2].mac.queue.classifier packetPushed:vector(packetBytes) ETV
attr interpolationmode none
attr title "packets pushed, vector(packetBytes)"
vector 257 PCE_Environment.router6.eth[2].mac.queue.dataQueue packetPushed:vector(packetBytes) ETV
attr interpolationmode none
attr title "packet pushed, vector(packetBytes)"
vector 258 PCE_Environment.router6.eth[2].mac.queue.dataQueue queueLength:vector ETV
attr interpolationmode sample-hold
attr source "count(packetPushed) - count(packetPopped) - count(packetRemoved) - count(packetDropped)"
attr title "queue length, vector"
vector 259 PCE_Environment.router6.eth[2].mac.queue.dataQueue packetPopped:vector(packetBytes) ETV
attr interpolationmode none
attr title "packet popped, vector(packetBytes)"
vector 260 PCE_Environment.router6.eth[2].mac.queue.dataQueue queueingTime:vector ETV
attr interpolationmode none
attr source queueingTime(packetPopped)
attr title "queueing times, vector"
attr unit s
vector 261 PCE_Environment.router6.eth[2].mac.queue queueingTime:vector ETV
attr interpolationmode none
attr source queueingTime(packetPopped)
attr title "queueing times, vector"
attr unit s
vector 262 PCE_Environment.router6.eth[2].mac.queue.scheduler packetPopped:vector(packetBytes) ETV
attr interpolationmode none
attr title "packets popped, vector(packetBytes)"
vector 263 PCE_Environment.router6.eth[2].mac.queue packetPopped:vector(packetBytes) ETV
attr interpolationmode none
attr source localSignal(packetPopped)
attr title "packets popped, vector(packetBytes)"
vector 264 PCE_Environment.cloudServer2.app[0] pingTxSeq:vector ETV
attr interpolationmode none
attr title "ping tx seq, vector"
vector 265 PCE_Environment.cloudServer2.ipv4.arp arpRequestSent:vector(packetBytes) ETV
attr source arpRequestSent
attr title "ARP request sent, vector(packetBytes)"
vector 266 PCE_Environment.cloudServer2.eth[0].encap encapPk:vector(packetBytes) ETV
attr interpolationmode none
attr source encapPk
attr title "packets encapsulated, vector(packetBytes)"
vector 267 PCE_Environment.cloudServer2.eth[0].mac packetReceivedFromUpper:vector(packetBytes) ETV
attr interpolationmode none
attr source packetReceivedFromUpper
attr title "packet bytes from higher layer, vector(packetBytes)"
vector 268 PCE_Environment.cloudServer2.eth[0].mac.queue packetPushed:vector(packetBytes) ETV
attr interpolationmode none
attr title "packet pushed, vector(packetBytes)"
vector 269 PCE_Environment.cloudServer2.eth[0].mac.queue queueLength:vector ETV
attr interpolationmode sample-hold
attr source "count(packetPushed) - count(packetPopped) - count(packetRemoved) - count(packetDropped)"
attr title "queue length, vector"
vector 270 PCE_Environment.cloudServer2.eth[0].mac.queue packetPopped:vector(packetBytes) ETV
attr interpolationmode none
attr title "packet popped, vector(packetBytes)"
vector 271 PCE_Environment.cloudServer2.eth[0].mac.queue queueingTime:vector ETV
attr interpolationmode none
attr source queueingTime(packetPopped)
attr title "queueing times, vector"
attr unit s
vector 272 PCE_Environment.standardHost3.eth[0].mac txPk:vector(packetBytes) ETV
attr interpolationmode none
attr source packetSentToLower
attr title "packets transmitted, vector(packetBytes)"
vector 273 PCE_Environment.etherSwitch3.eth[0].mac rxPkOk:vector(packetBytes) ETV
attr interpolationmode none
attr source rxPkOk
attr title "packets received OK, vector(packetBytes)"
vector 274 PCE_Environment.etherSwitch3.eth[0].mac passedUpPk:vector(packetBytes) ETV
attr interpolationmode none
attr source packetSentToUpper
attr title "packets passed to higher layer, vector(packetBytes)"
vector 275 PCE_Environment.etherSwitch3.eth[3].mac txPk:vector(packetBytes) ETV
attr interpolationmode none
attr source packetSentToLower
attr title "packets transmitted, vector(packetBytes)"
vector 276 PCE_Environment.ddosBot2.eth[0].mac rxPkOk:vector(packetBytes) ETV
attr interpolationmode none
attr source rxPkOk
attr title "packets received OK, vector(packetBytes)"
vector 277 PCE_Environment.ddosBot2.eth[0].mac passedUpPk:vector(packetBytes) ETV
attr interpolationmode none
attr source packetSentToUpper
attr title "packets passed to higher layer, vector(packetBytes)"
vector 278 PCE_Environment.ddosBot2.eth[0].encap decapPk:vector(packetBytes) ETV
attr interpolationmode none
attr source decapPk
attr title "packets decapsulated, vector(packetBytes)"
vector 279 PCE_Environment.standardHost2.eth[0].mac txPk:vector(packetBytes) ETV
attr interpolationmode none
attr source packetSentToLower
attr title "packets transmitted, vector(packetBytes)"
vector 280 PCE_Environment.etherSwitch2.eth[3].mac txPk:vector(packetBytes) ETV
attr interpolationmode none
attr source packetSentToLower
attr title "packets transmitted, vector(packetBytes)"
vector 281 PCE_Environment.etherSwitch2.eth[1].mac rxPkOk:vector(packetBytes) ETV
attr interpolationmode none
attr source rxPkOk
attr title "packets received OK, vector(packetBytes)"
vector 282 PCE_Environment.etherSwitch2.eth[1].mac passedUpPk:vector(packetBytes) ETV
attr interpolationmode none
attr source packetSentToUpper
attr title "packets passed to higher layer, vector(packetBytes)"
vector 283 PCE_Environment.etherSwitch2.eth[3].mac collision:vector ETV
attr interpolationmode none
attr title "collision, vector"
vector 284 PCE_Environment.cloudServer4.eth[0].mac txPk:vector(packetBytes) ETV
attr interpolationmode none
attr source packetSentToLower
attr title "packets transmitted, vector(packetBytes)"
vector 285 PCE_Environment.router6.eth[0].mac rxPkOk:vector(packetBytes) ETV
attr interpolationmode none
attr source rxPkOk
attr title "packets received OK, vector(packetBytes)"
vector 286 PCE_Environment.router6.eth[0].mac passedUpPk:vector(packetBytes) ETV
attr interpolationmode none
attr source packetSentToUpper
attr title "packets passed to higher layer, vector(packetBytes)"
vector 287 PCE_Environment.router6.eth[0].encap decapPk:vector(packetBytes) ETV
attr interpolationmode none
attr source decapPk
attr title "packets decapsulated, vector(packetBytes)"
vector 288 PCE_Environment.router6.eth[0].encap encapPk:vector(packetBytes) ETV
attr interpolationmode none
attr source encapPk
attr title "packets encapsulated, vector(packetBytes)"
vector 289 PCE_Environment.router6.eth[0].mac packetReceivedFromUpper:vector(packetBytes) ETV
attr interpolationmode none
attr source packetReceivedFromUpper
attr title "packet bytes from higher layer, vector(packetBytes)"
vector 290 PCE_Environment.router6.eth[0].mac.queue packetPushed:vector(packetBytes) ETV
attr interpolationmode none
attr source localSignal(packetPushed)
attr title "packets pushed, vector(packetBytes)"
vector 291 PCE_Environment.router6.eth[0].mac.queue queueLength:vector ETV
attr interpolationmode sample-hold
attr source "count(localSignal(packetPushed)) - count(localSignal(packetPopped)) - count(localSignal(packetRemoved)) - count(packetDropped)"
attr title "queue length, vector"
vector 292 PCE_Environment.router6.eth[0].mac.queue.classifier packetPushed:vector(packetBytes) ETV
attr interpolationmode none
attr title "packets pushed, vector(packetBytes)"
vector 293 PCE_Environment.router6.eth[0].mac.queue.dataQueue packetPushed:vector(packetBytes) ETV
attr interpolationmode none
attr title "packet pushed, vector(packetBytes)"
vector 294 PCE_Environment.router6.eth[0].mac.queue.dataQueue queueLength:vector ETV
attr interpolationmode sample-hold
attr source "count(packetPushed) - count(packetPopped) - count(packetRemoved) - count(packetDropped)"
attr title "queue length, vector"
vector 295 PCE_Environment.router6.eth[0].mac.queue.dataQueue packetPopped:vector(packetBytes) ETV
attr interpolationmode none
attr title "packet popped, vector(packetBytes)"
vector 296 PCE_Environment.router6.eth[0].mac.queue.dataQueue queueingTime:vector ETV
attr interpolationmode none
attr source queueingTime(packetPopped)
attr title "queueing times, vector"
attr unit s
vector 297 PCE_Environment.router6.eth[0].mac.queue queueingTime:vector ETV
attr interpolationmode none
attr source queueingTime(packetPopped)
attr title "queueing times, vector"
attr unit s
vector 298 PCE_Environment.router6.eth[0].mac.queue.scheduler packetPopped:vector(packetBytes) ETV
attr interpolationmode none
attr title "packets popped, vector(packetBytes)"
vector 299 PCE_Environment.router6.eth[0].mac.queue packetPopped:vector(packetBytes) ETV
attr interpolationmode none
attr source localSignal(packetPopped)
attr title "packets popped, vector(packetBytes)"
vector 300 PCE_Environment.etherSwitch3.eth[4].mac collision:vector ETV
attr interpolationmode none
attr title "collision, vector"
vector 301 PCE_Environment.standardHost4.eth[0].mac txPk:vector(packetBytes) ETV
attr interpolationmode none
attr source packetSentToLower
attr title "packets transmitted, vector(packetBytes)"
vector 302 PCE_Environment.router6.eth[2].mac txPk:vector(packetBytes) ETV
attr interpolationmode none
attr source packetSentToLower
attr title "packets transmitted, vector(packetBytes)"
vector 303 PCE_Environment.etherSwitch3.eth[1].mac rxPkOk:vector(packetBytes) ETV
attr interpolationmode none
attr source rxPkOk
attr title "packets received OK, vector(packetBytes)"
vector 304 PCE_Environment.etherSwitch3.eth[1].mac passedUpPk:vector(packetBytes) ETV
attr interpolationmode none
attr source packetSentToUpper
attr title "packets passed to higher layer, vector(packetBytes)"
vector 305 PCE_Environment.cloudServer6.eth[0].mac rxPkOk:vector(packetBytes) ETV
attr interpolationmode none
attr source rxPkOk
attr title "packets received OK, vector(packetBytes)"
vector 306 PCE_Environment.cloudServer6.eth[0].mac passedUpPk:vector(packetBytes) ETV
attr interpolationmode none
attr source packetSentToUpper
attr title "packets passed to higher layer, vector(packetBytes)"
vector 307 PCE_Environment.cloudServer6.eth[0].encap decapPk:vector(packetBytes) ETV
attr interpolationmode none
attr source decapPk
attr title "packets decapsulated, vector(packetBytes)"
vector 308 PCE_Environment.cloudServer2.eth[0].mac txPk:vector(packetBytes) ETV
attr interpolationmode none
attr source packetSentToLower
attr title "packets transmitted, vector(packetBytes)"
vector 309 PCE_Environment.router5.eth[1].mac rxPkOk:vector(packetBytes) ETV
attr interpolationmode none
attr source rxPkOk
attr title "packets received OK, vector(packetBytes)"
vector 310 PCE_Environment.router5.eth[1].mac passedUpPk:vector(packetBytes) ETV
attr interpolationmode none
attr source packetSentToUpper
attr title "packets passed to higher layer, vector(packetBytes)"
vector 311 PCE_Environment.router5.eth[1].encap decapPk:vector(packetBytes) ETV
attr interpolationmode none
attr source decapPk
attr title "packets decapsulated, vector(packetBytes)"
vector 312 PCE_Environment.router5.ipv4.arp arpReplySent:vector(packetBytes) ETV
attr source arpReplySent
attr title "ARP replies sent, vector(packetBytes)"
vector 313 PCE_Environment.router5.eth[1].encap encapPk:vector(packetBytes) ETV
attr interpolationmode none
attr source encapPk
attr title "packets encapsulated, vector(packetBytes)"
vector 314 PCE_Environment.router5.eth[1].mac packetReceivedFromUpper:vector(packetBytes) ETV
attr interpolationmode none
attr source packetReceivedFromUpper
attr title "packet bytes from higher layer, vector(packetBytes)"
vector 315 PCE_Environment.router5.eth[1].mac.queue packetPushed:vector(packetBytes) ETV
attr interpolationmode none
attr source localSignal(packetPushed)
attr title "packets pushed, vector(packetBytes)"
vector 316 PCE_Environment.router5.eth[1].mac.queue queueLength:vector ETV
attr interpolationmode sample-hold
attr source "count(localSignal(packetPushed)) - count(localSignal(packetPopped)) - count(localSignal(packetRemoved)) - count(packetDropped)"
attr title "queue length, vector"
vector 317 PCE_Environment.router5.eth[1].mac.queue.classifier packetPushed:vector(packetBytes) ETV
attr interpolationmode none
attr title "packets pushed, vector(packetBytes)"
vector 318 PCE_Environment.router5.eth[1].mac.queue.dataQueue packetPushed:vector(packetBytes) ETV
attr interpolationmode none
attr title "packet pushed, vector(packetBytes)"
vector 319 PCE_Environment.router5.eth[1].mac.queue.dataQueue queueLength:vector ETV
attr interpolationmode sample-hold
attr source "count(packetPushed) - count(packetPopped) - count(packetRemoved) - count(packetDropped)"
attr title "queue length, vector"
vector 320 PCE_Environment.router5.eth[1].mac.queue.dataQueue packetPopped:vector(packetBytes) ETV
attr interpolationmode none
attr title "packet popped, vector(packetBytes)"
vector 321 PCE_Environment.router5.eth[1].mac.queue.dataQueue queueingTime:vector ETV
attr interpolationmode none
attr source queueingTime(packetPopped)
attr title "queueing times, vector"
attr unit s
vector 322 PCE_Environment.router5.eth[1].mac.queue queueingTime:vector ETV
attr interpolationmode none
attr source queueingTime(packetPopped)
attr title "queueing times, vector"
attr unit s
vector 323 PCE_Environment.router5.eth[1].mac.queue.scheduler packetPopped:vector(packetBytes) ETV
attr interpolationmode none
attr title "packets popped, vector(packetBytes)"
vector 324 PCE_Environment.router5.eth[1].mac.queue packetPopped:vector(packetBytes) ETV
attr interpolationmode none
attr source localSignal(packetPopped)
attr title "packets popped, vector(packetBytes)"
vector 325 PCE_Environment.standardHost1.app[0] pingTxSeq:vector ETV
attr interpolationmode none
attr title "ping tx seq, vector"
vector 326 PCE_Environment.standardHost1.ipv4.arp arpRequestSent:vector(packetBytes) ETV
attr source arpRequestSent
attr title "ARP request sent, vector(packetBytes)"
vector 327 PCE_Environment.standardHost1.eth[0].encap encapPk:vector(packetBytes) ETV
attr interpolationmode none
attr source encapPk
attr title "packets encapsulated, vector(packetBytes)"
vector 328 PCE_Environment.standardHost1.eth[0].mac packetReceivedFromUpper:vector(packetBytes) ETV
attr interpolationmode none
attr source packetReceivedFromUpper
attr title "packet bytes from higher layer, vector(packetBytes)"
vector 329 PCE_Environment.standardHost1.eth[0].mac.queue packetPushed:vector(packetBytes) ETV
attr interpolationmode none
attr title "packet pushed, vector(packetBytes)"
vector 330 PCE_Environment.standardHost1.eth[0].mac.queue queueLength:vector ETV
attr interpolationmode sample-hold
attr source "count(packetPushed) - count(packetPopped) - count(packetRemoved) - count(packetDropped)"
attr title "queue length, vector"
vector 331 PCE_Environment.standardHost1.eth[0].mac.queue packetPopped:vector(packetBytes) ETV
attr interpolationmode none
attr title "packet popped, vector(packetBytes)"
vector 332 PCE_Environment.standardHost1.eth[0].mac.queue queueingTime:vector ETV
attr interpolationmode none
attr source queueingTime(packetPopped)
attr title "queueing times, vector"
attr unit s
vector 333 PCE_Environment.router6.eth[0].mac txPk:vector(packetBytes) ETV
attr interpolationmode none
attr source packetSentToLower
attr title "packets transmitted, vector(packetBytes)"
vector 334 PCE_Environment.cloudServer4.eth[0].mac rxPkOk:vector(packetBytes) ETV
attr interpolationmode none
attr source rxPkOk
attr title "packets received OK, vector(packetBytes)"
vector 335 PCE_Environment.cloudServer4.eth[0].mac passedUpPk:vector(packetBytes) ETV
attr interpolationmode none
attr source packetSentToUpper
attr title "packets passed to higher layer, vector(packetBytes)"
vector 336 PCE_Environment.cloudServer4.eth[0].encap decapPk:vector(packetBytes) ETV
attr interpolationmode none
attr source decapPk
attr title "packets decapsulated, vector(packetBytes)"
vector 337 PCE_Environment.cloudServer1.app[0] pingTxSeq:vector ETV
attr interpolationmode none
attr title "ping tx seq, vector"
vector 338 PCE_Environment.cloudServer1.ipv4.arp arpRequestSent:vector(packetBytes) ETV
attr source arpRequestSent
attr title "ARP request sent, vector(packetBytes)"
vector 339 PCE_Environment.cloudServer1.eth[0].encap encapPk:vector(packetBytes) ETV
attr interpolationmode none
attr source encapPk
attr title "packets encapsulated, vector(packetBytes)"
vector 340 PCE_Environment.cloudServer1.eth[0].mac packetReceivedFromUpper:vector(packetBytes) ETV
attr interpolationmode none
attr source packetReceivedFromUpper
attr title "packet bytes from higher layer, vector(packetBytes)"
vector 341 PCE_Environment.cloudServer1.eth[0].mac.queue packetPushed:vector(packetBytes) ETV
attr interpolationmode none
attr title "packet pushed, vector(packetBytes)"
vector 342 PCE_Environment.cloudServer1.eth[0].mac.queue queueLength:vector ETV
attr interpolationmode sample-hold
attr source "count(packetPushed) - count(packetPopped) - count(packetRemoved) - count(packetDropped)"
attr title "queue length, vector"
vector 343 PCE_Environment.cloudServer1.eth[0].mac.queue packetPopped:vector(packetBytes) ETV
attr interpolationmode none
attr title "packet popped, vector(packetBytes)"
vector 344 PCE_Environment.cloudServer1.eth[0].mac.queue queueingTime:vector ETV
attr interpolationmode none
attr source queueingTime(packetPopped)
attr title "queueing times, vector"
attr unit s
vector 345 PCE_Environment.cloudServer5.app[0] pingTxSeq:vector ETV
attr interpolationmode none
attr title "ping tx seq, vector"
vector 346 PCE_Environment.cloudServer5.ipv4.arp arpRequestSent:vector(packetBytes) ETV
attr source arpRequestSent
attr title "ARP request sent, vector(packetBytes)"
vector 347 PCE_Environment.cloudServer5.eth[0].encap encapPk:vector(packetBytes) ETV
attr interpolationmode none
attr source encapPk
attr title "packets encapsulated, vector(packetBytes)"
vector 348 PCE_Environment.cloudServer5.eth[0].mac packetReceivedFromUpper:vector(packetBytes) ETV
attr interpolationmode none
attr source packetReceivedFromUpper
attr title "packet bytes from higher layer, vector(packetBytes)"
vector 349 PCE_Environment.cloudServer5.eth[0].mac.queue packetPushed:vector(packetBytes) ETV
attr interpolationmode none
attr title "packet pushed, vector(packetBytes)"
vector 350 PCE_Environment.cloudServer5.eth[0].mac.queue queueLength:vector ETV
attr interpolationmode sample-hold
attr source "count(packetPushed) - count(packetPopped) - count(packetRemoved) - count(packetDropped)"
attr title "queue length, vector"
vector 351 PCE_Environment.cloudServer5.eth[0].mac.queue packetPopped:vector(packetBytes) ETV
attr interpolationmode none
attr title "packet popped, vector(packetBytes)"
vector 352 PCE_Environment.cloudServer5.eth[0].mac.queue queueingTime:vector ETV
attr interpolationmode none
attr source queueingTime(packetPopped)
attr title "queueing times, vector"
attr unit s
vector 353 PCE_Environment.cloudServer3.app[0] pingTxSeq:vector ETV
attr interpolationmode none
attr title "ping tx seq, vector"
vector 354 PCE_Environment.cloudServer3.ipv4.arp arpRequestSent:vector(packetBytes) ETV
attr source arpRequestSent
attr title "ARP request sent, vector(packetBytes)"
vector 355 PCE_Environment.cloudServer3.eth[0].encap encapPk:vector(packetBytes) ETV
attr interpolationmode none
attr source encapPk
attr title "packets encapsulated, vector(packetBytes)"
vector 356 PCE_Environment.cloudServer3.eth[0].mac packetReceivedFromUpper:vector(packetBytes) ETV
attr interpolationmode none
attr source packetReceivedFromUpper
attr title "packet bytes from higher layer, vector(packetBytes)"
vector 357 PCE_Environment.cloudServer3.eth[0].mac.queue packetPushed:vector(packetBytes) ETV
attr interpolationmode none
attr title "packet pushed, vector(packetBytes)"
vector 358 PCE_Environment.cloudServer3.eth[0].mac.queue queueLength:vector ETV
attr interpolationmode sample-hold
attr source "count(packetPushed) - count(packetPopped) - count(packetRemoved) - count(packetDropped)"
attr title "queue length, vector"
vector 359 PCE_Environment.cloudServer3.eth[0].mac.queue packetPopped:vector(packetBytes) ETV
attr interpolationmode none
attr title "packet popped, vector(packetBytes)"
vector 360 PCE_Environment.cloudServer3.eth[0].mac.queue queueingTime:vector ETV
attr interpolationmode none
attr source queueingTime(packetPopped)
attr title "queueing times, vector"
attr unit s
vector 361 PCE_Environment.router5.eth[1].mac txPk:vector(packetBytes) ETV
attr interpolationmode none
attr source packetSentToLower
attr title "packets transmitted, vector(packetBytes)"
vector 362 PCE_Environment.cloudServer2.eth[0].mac rxPkOk:vector(packetBytes) ETV
attr interpolationmode none
attr source rxPkOk
attr title "packets received OK, vector(packetBytes)"
vector 363 PCE_Environment.cloudServer2.eth[0].mac passedUpPk:vector(packetBytes) ETV
attr interpolationmode none
attr source packetSentToUpper
attr title "packets passed to higher layer, vector(packetBytes)"
vector 364 PCE_Environment.cloudServer2.eth[0].encap decapPk:vector(packetBytes) ETV
attr interpolationmode none
attr source decapPk
attr title "packets decapsulated, vector(packetBytes)"
vector 365 PCE_Environment.router6.ipv4.arp arpRequestSent:vector(packetBytes) ETV
attr source arpRequestSent
attr title "ARP request sent, vector(packetBytes)"
vector 366 PCE_Environment.router6.eth[3].encap encapPk:vector(packetBytes) ETV
attr interpolationmode none
attr source encapPk
attr title "packets encapsulated, vector(packetBytes)"
vector 367 PCE_Environment.router6.eth[3].mac packetReceivedFromUpper:vector(packetBytes) ETV
attr interpolationmode none
attr source packetReceivedFromUpper
attr title "packet bytes from higher layer, vector(packetBytes)"
vector 368 PCE_Environment.router6.eth[3].mac.queue packetPushed:vector(packetBytes) ETV
attr interpolationmode none
attr source localSignal(packetPushed)
attr title "packets pushed, vector(packetBytes)"
vector 369 PCE_Environment.router6.eth[3].mac.queue queueLength:vector ETV
attr interpolationmode sample-hold
attr source "count(localSignal(packetPushed)) - count(localSignal(packetPopped)) - count(localSignal(packetRemoved)) - count(packetDropped)"
attr title "queue length, vector"
vector 370 PCE_Environment.router6.eth[3].mac.queue.classifier packetPushed:vector(packetBytes) ETV
attr interpolationmode none
attr title "packets pushed, vector(packetBytes)"
vector 371 PCE_Environment.router6.eth[3].mac.queue.dataQueue packetPushed:vector(packetBytes) ETV
attr interpolationmode none
attr title "packet pushed, vector(packetBytes)"
vector 372 PCE_Environment.router6.eth[3].mac.queue.dataQueue queueLength:vector ETV
attr interpolationmode sample-hold
attr source "count(packetPushed) - count(packetPopped) - count(packetRemoved) - count(packetDropped)"
attr title "queue length, vector"
vector 373 PCE_Environment.router6.eth[3].mac.queue.dataQueue packetPopped:vector(packetBytes) ETV
attr interpolationmode none
attr title "packet popped, vector(packetBytes)"
vector 374 PCE_Environment.router6.eth[3].mac.queue.dataQueue queueingTime:vector ETV
attr interpolationmode none
attr source queueingTime(packetPopped)
attr title "queueing times, vector"
attr unit s
vector 375 PCE_Environment.router6.eth[3].mac.queue queueingTime:vector ETV
attr interpolationmode none
attr source queueingTime(packetPopped)
attr title "queueing times, vector"
attr unit s
vector 376 PCE_Environment.router6.eth[3].mac.queue.scheduler packetPopped:vector(packetBytes) ETV
attr interpolationmode none
attr title "packets popped, vector(packetBytes)"
vector 377 PCE_Environment.router6.eth[3].mac.queue packetPopped:vector(packetBytes) ETV
attr interpolationmode none
attr source localSignal(packetPopped)
attr title "packets popped, vector(packetBytes)"
vector 378 PCE_Environment.standardHost1.eth[0].mac txPk:vector(packetBytes) ETV
attr interpolationmode none
attr source packetSentToLower
attr title "packets transmitted, vector(packetBytes)"
vector 379 PCE_Environment.etherSwitch2.eth[0].mac rxPkOk:vector(packetBytes) ETV
attr interpolationmode none
attr source rxPkOk
attr title "packets received OK, vector(packetBytes)"
vector 380 PCE_Environment.etherSwitch2.eth[0].mac passedUpPk:vector(packetBytes) ETV
attr interpolationmode none
attr source packetSentToUpper
attr title "packets passed to higher layer, vector(packetBytes)"
vector 381 PCE_Environment.cloudServer1.eth[0].mac txPk:vector(packetBytes) ETV
attr interpolationmode none
attr source packetSentToLower
attr title "packets transmitted, vector(packetBytes)"
vector 382 PCE_Environment.router5.eth[0].mac rxPkOk:vector(packetBytes) ETV
attr interpolationmode none
attr source rxPkOk
attr title "packets received OK, vector(packetBytes)"
[...]
561	22533	2.001991556192	84
561	22637	2.002001316192	84
561	22747	2.002011076192	84
561	22865	2.002020836192	84
561	22958	2.002030596192	84
561	23086	2.002040356192	84
561	23222	2.002050116192	84
561	23377	2.002059876192	84
561	23508	2.002069636192	84
563	22742	2.002010361783	84
563	22910	2.002026841783	84
563	23027	2.002036601783	84
563	23178	2.002046361783	84
563	23336	2.002056121783	84
563	23474	2.002065881783	84
563	23588	2.002075641783	84
564	22743	2.002010361783	102
564	22911	2.002026841783	102
564	23028	2.002036601783	102
564	23179	2.002046361783	102
564	23337	2.002056121783	102
564	23475	2.002065881783	102
564	23589	2.002075641783	102
565	22743	2.002010361783	102
565	22911	2.002026841783	102
565	23028	2.002036601783	102
565	23179	2.002046361783	102
565	23337	2.002056121783	102
565	23475	2.002065881783	102
565	23589	2.002075641783	102
566	22743	2.002010361783	1
566	22743	2.002010361783	0
566	22911	2.002026841783	1
566	22911	2.002026841783	0
566	23028	2.002036601783	1
566	23028	2.002036601783	0
566	23179	2.002046361783	1
566	23179	2.002046361783	0
566	23337	2.002056121783	1
566	23337	2.002056121783	0
566	23475	2.002065881783	1
566	23475	2.002065881783	0
566	23589	2.002075641783	1
566	23589	2.002075641783	0
567	22743	2.002010361783	102
567	22911	2.002026841783	102
567	23028	2.002036601783	102
567	23179	2.002046361783	102
567	23337	2.002056121783	102
567	23475	2.002065881783	102
567	23589	2.002075641783	102
568	22743	2.002010361783	102
568	22911	2.002026841783	102
568	23028	2.002036601783	102
568	23179	2.002046361783	102
568	23337	2.002056121783	102
568	23475	2.002065881783	102
568	23589	2.002075641783	102
569	22743	2.002010361783	1
569	22743	2.002010361783	0
569	22911	2.002026841783	1
569	22911	2.002026841783	0
569	23028	2.002036601783	1
569	23028	2.002036601783	0
569	23179	2.002046361783	1
569	23179	2.002046361783	0
569	23337	2.002056121783	1
569	23337	2.002056121783	0
569	23475	2.002065881783	1
569	23475	2.002065881783	0
569	23589	2.002075641783	1
569	23589	2.002075641783	0
570	22743	2.002010361783	102
570	22911	2.002026841783	102
570	23028	2.002036601783	102
570	23179	2.002046361783	102
570	23337	2.002056121783	102
570	23475	2.002065881783	102
570	23589	2.002075641783	102
571	22743	2.002010361783	0
571	22911	2.002026841783	0
571	23028	2.002036601783	0
571	23179	2.002046361783	0
571	23337	2.002056121783	0
571	23475	2.002065881783	0
571	23589	2.002075641783	0
572	22743	2.002010361783	0
572	22743	2.002010361783	0
572	22743	2.002010361783	0
572	22911	2.002026841783	0
572	22911	2.002026841783	0
572	22911	2.002026841783	0
572	23028	2.002036601783	0
572	23028	2.002036601783	0
572	23028	2.002036601783	0
572	23179	2.002046361783	0
572	23179	2.002046361783	0
572	23179	2.002046361783	0
572	23337	2.002056121783	0
572	23337	2.002056121783	0
572	23337	2.002056121783	0
572	23475	2.002065881783	0
572	23475	2.002065881783	0
572	23475	2.002065881783	0
572	23589	2.002075641783	0
572	23589	2.002075641783	0
572	23589	2.002075641783	0
573	22743	2.002010361783	102
573	22911	2.002026841783	102
573	23028	2.002036601783	102
573	23179	2.002046361783	102
573	23337	2.002056121783	102
573	23475	2.002065881783	102
573	23589	2.002075641783	102
574	22743	2.002010361783	102
574	22911	2.002026841783	102
574	23028	2.002036601783	102
574	23179	2.002046361783	102
574	23337	2.002056121783	102
574	23475	2.002065881783	102
574	23589	2.002075641783	102
575	22818	2.002018156192	102
576	22819	2.002018156192	102
577	22820	2.002018156192	102
578	22821	2.002018156192	102
579	21923	2.001934371826	102
579	21972	2.001941091826	64
579	22035	2.001947811826	64
579	22104	2.001954531826	64
579	22213	2.001964291826	102
579	22337	2.001974051826	102
579	22450	2.001983811826	102
579	22564	2.001993571826	102
579	22672	2.002003331826	102
580	21925	2.001934471826	102
580	21975	2.001941191826	64
580	22037	2.001947911826	64
580	22106	2.001954631826	64
580	22219	2.001964391826	102
580	22340	2.001974151826	102
580	22452	2.001983911826	102
580	22566	2.001993671826	102
580	22674	2.002003431826	102
581	21925	2.001934471826	102
581	21975	2.001941191826	64
581	22037	2.001947911826	64
581	22106	2.001954631826	64
581	22219	2.001964391826	102
581	22340	2.001974151826	102
581	22452	2.001983911826	102
581	22566	2.001993671826	102
581	22674	2.002003431826	102
582	21927	2.001934471826	102
582	21977	2.001941191826	64
582	22039	2.001947911826	64
582	22108	2.001954631826	64
582	22221	2.001964391826	102
582	22342	2.001974151826	102
582	22454	2.001983911826	102
582	22568	2.001993671826	102
582	22676	2.002003431826	102
583	21927	2.001934471826	102
583	21977	2.001941191826	64
583	22039	2.001947911826	64
583	22108	2.001954631826	64
583	22221	2.001964391826	102
583	22342	2.001974151826	102
583	22454	2.001983911826	102
583	22568	2.001993671826	102
583	22676	2.002003431826	102
584	21927	2.001934471826	2
584	21977	2.001941191826	3
584	22039	2.001947911826	4
584	22108	2.001954631826	5
584	22221	2.001964391826	6
584	22342	2.001974151826	7
584	22454	2.001983911826	8
584	22568	2.001993671826	9
584	22676	2.002003431826	10
584	23040	2.002037031826	9
584	23181	2.002046791826	8
584	23339	2.002056551826	7
584	23431	2.002063271826	6
584	23512	2.002069991826	5
584	23597	2.002076711826	4
585	23040	2.002037031826	102
585	23181	2.002046791826	102
585	23339	2.002056551826	64
585	23431	2.002063271826	64
585	23512	2.002069991826	64
585	23597	2.002076711826	102
586	23040	2.002037031826	0.00011232
586	23181	2.002046791826	0.00011232
586	23339	2.002056551826	0.00011536
586	23431	2.002063271826	0.00011536
586	23512	2.002069991826	0.00011536
586	23597	2.002076711826	0.00011232
597	22833	2.002019161783	102
597	22998	2.002035641783	102
597	23153	2.002045401783	102
597	23309	2.002055161783	102
597	23451	2.002064921783	102
597	23572	2.002074681783	102
598	22834	2.002019211783	102
598	23003	2.002035691783	102
598	23154	2.002045451783	102
598	23310	2.002055211783	102
598	23454	2.002064971783	102
598	23573	2.002074731783	102
599	22834	2.002019211783	102
599	23003	2.002035691783	102
599	23154	2.002045451783	102
599	23310	2.002055211783	102
599	23454	2.002064971783	102
599	23573	2.002074731783	102
600	22835	2.002019211783	84
600	23004	2.002035691783	84
600	23156	2.002045451783	84
600	23312	2.002055211783	84
600	23456	2.002064971783	84
600	23575	2.002074731783	84
601	23040	2.002037031826	1518
601	23181	2.002046791826	102
601	23339	2.002056551826	102
601	23431	2.002063271826	64
601	23512	2.002069991826	64
601	23597	2.002076711826	64
604	23041	2.002037081826	1518
604	23182	2.002046841826	102
604	23340	2.002056601826	102
604	23432	2.002063321826	64
604	23513	2.002070041826	64
604	23598	2.002076761826	64
605	23041	2.002037081826	1518
605	23182	2.002046841826	102
605	23340	2.002056601826	102
605	23432	2.002063321826	64
605	23513	2.002070041826	64
605	23598	2.002076761826	64
612	23044	2.002037081826	1508
612	23185	2.002046841826	92
612	23343	2.002056601826	92
612	23435	2.002063321826	54
612	23516	2.002070041826	54
612	23601	2.002076761826	54
613	22646	2.002001511783	84
613	22812	2.002017991783	84
613	22927	2.002027751783	84
613	23053	2.002037511783	84
613	23192	2.002047271783	84
613	23350	2.002057031783	84
613	23482	2.002066791783	84
614	22647	2.002001511783	102
614	22813	2.002017991783	102
614	22928	2.002027751783	102
614	23054	2.002037511783	102
614	23193	2.002047271783	102
614	23351	2.002057031783	102
614	23483	2.002066791783	102
615	22647	2.002001511783	102
615	22813	2.002017991783	102
615	22928	2.002027751783	102
615	23054	2.002037511783	102
615	23193	2.002047271783	102
615	23351	2.002057031783	102
615	23483	2.002066791783	102
616	22647	2.002001511783	1
616	22647	2.002001511783	0
616	22813	2.002017991783	1
616	22813	2.002017991783	0
616	22928	2.002027751783	1
616	22928	2.002027751783	0
616	23054	2.002037511783	1
616	23054	2.002037511783	0
616	23193	2.002047271783	1
616	23193	2.002047271783	0
616	23351	2.002057031783	1
616	23351	2.002057031783	0
616	23483	2.002066791783	1
616	23483	2.002066791783	0
617	22647	2.002001511783	102
617	22813	2.002017991783	102
617	22928	2.002027751783	102
617	23054	2.002037511783	102
617	23193	2.002047271783	102
617	23351	2.002057031783	102
617	23483	2.002066791783	102
618	22647	2.002001511783	102
618	22813	2.002017991783	102
618	22928	2.002027751783	102
618	23054	2.002037511783	102
618	23193	2.002047271783	102
618	23351	2.002057031783	102
618	23483	2.002066791783	102
619	22647	2.002001511783	1
619	22647	2.002001511783	0
619	22813	2.002017991783	1
619	22813	2.002017991783	0
619	22928	2.002027751783	1
619	22928	2.002027751783	0
619	23054	2.002037511783	1
619	23054	2.002037511783	0
619	23193	2.002047271783	1
619	23193	2.002047271783	0
619	23351	2.002057031783	1
619	23351	2.002057031783	0
619	23483	2.002066791783	1
619	23483	2.002066791783	0
620	22647	2.002001511783	102
620	22813	2.002017991783	102
620	22928	2.002027751783	102
620	23054	2.002037511783	102
620	23193	2.002047271783	102
620	23351	2.002057031783	102
620	23483	2.002066791783	102
621	22647	2.002001511783	0
621	22813	2.002017991783	0
621	22928	2.002027751783	0
621	23054	2.002037511783	0
621	23193	2.002047271783	0
621	23351	2.002057031783	0
621	23483	2.002066791783	0
622	22647	2.002001511783	0
622	22647	2.002001511783	0
622	22647	2.002001511783	0
622	22813	2.002017991783	0
622	22813	2.002017991783	0
622	22813	2.002017991783	0
622	22928	2.002027751783	0
622	22928	2.002027751783	0
622	22928	2.002027751783	0
622	23054	2.002037511783	0
622	23054	2.002037511783	0
622	23054	2.002037511783	0
622	23193	2.002047271783	0
622	23193	2.002047271783	0
622	23193	2.002047271783	0
622	23351	2.002057031783	0
622	23351	2.002057031783	0
622	23351	2.002057031783	0
622	23483	2.002066791783	0
622	23483	2.002066791783	0
622	23483	2.002066791783	0
623	22647	2.002001511783	102
623	22813	2.002017991783	102
623	22928	2.002027751783	102
623	23054	2.002037511783	102
623	23193	2.002047271783	102
623	23351	2.002057031783	102
623	23483	2.002066791783	102
624	22647	2.002001511783	102
624	22813	2.002017991783	102
624	22928	2.002027751783	102
624	23054	2.002037511783	102
624	23193	2.002047271783	102
624	23351	2.002057031783	102
624	23483	2.002066791783	102
626	22016	2.001942756192	84
626	22092	2.001952516192	84
626	22188	2.001962276192	84
626	22296	2.001972036192	84
626	22431	2.001981796192	84
626	22535	2.001991556192	84
626	22867	2.002020836192	84
626	22960	2.002030596192	84
626	23088	2.002040356192	84
626	23224	2.002050116192	84
626	23510	2.002069636192	84
627	22017	2.001942756192	102
627	22093	2.001952516192	102
627	22189	2.001962276192	102
627	22297	2.001972036192	102
627	22432	2.001981796192	102
627	22536	2.001991556192	102
627	22868	2.002020836192	102
627	22961	2.002030596192	102
627	23089	2.002040356192	102
627	23225	2.002050116192	102
627	23511	2.002069636192	102
628	22017	2.001942756192	102
628	22093	2.001952516192	102
628	22189	2.001962276192	102
628	22297	2.001972036192	102
628	22432	2.001981796192	102
628	22536	2.001991556192	102
628	22868	2.002020836192	102
628	22961	2.002030596192	102
628	23089	2.002040356192	102
628	23225	2.002050116192	102
628	23511	2.002069636192	102
629	22017	2.001942756192	1
629	22017	2.001942756192	0
629	22093	2.001952516192	1
629	22093	2.001952516192	0
629	22189	2.001962276192	1
629	22189	2.001962276192	0
629	22297	2.001972036192	1
629	22297	2.001972036192	0
629	22432	2.001981796192	1
629	22432	2.001981796192	0
629	22536	2.001991556192	1
629	22536	2.001991556192	0
629	22868	2.002020836192	1
629	22868	2.002020836192	0
629	22961	2.002030596192	1
629	22961	2.002030596192	0
629	23089	2.002040356192	1
629	23089	2.002040356192	0
629	23225	2.002050116192	1
629	23225	2.002050116192	0
629	23511	2.002069636192	1
629	23511	2.002069636192	0
630	22017	2.001942756192	102
630	22093	2.001952516192	102
630	22189	2.001962276192	102
630	22297	2.001972036192	102
630	22432	2.001981796192	102
630	22536	2.001991556192	102
630	22868	2.002020836192	102
630	22961	2.002030596192	102
630	23089	2.002040356192	102
630	23225	2.002050116192	102
630	23511	2.002069636192	102
631	22017	2.001942756192	102
631	22093	2.001952516192	102
631	22189	2.001962276192	102
631	22297	2.001972036192	102
631	22432	2.001981796192	102
631	22536	2.001991556192	102
631	22868	2.002020836192	102
631	22961	2.002030596192	102
631	23089	2.002040356192	102
631	23225	2.002050116192	102
631	23511	2.002069636192	102
632	22017	2.001942756192	1
632	22017	2.001942756192	0
632	22093	2.001952516192	1
632	22093	2.001952516192	0
632	22189	2.001962276192	1
632	22189	2.001962276192	0
632	22297	2.001972036192	1
632	22297	2.001972036192	0
632	22432	2.001981796192	1
632	22432	2.001981796192	0
632	22536	2.001991556192	1
632	22536	2.001991556192	0
632	22868	2.002020836192	1
632	22868	2.002020836192	0
632	22961	2.002030596192	1
632	22961	2.002030596192	0
632	23089	2.002040356192	1
632	23089	2.002040356192	0
632	23225	2.002050116192	1
632	23225	2.002050116192	0
632	23511	2.002069636192	1
632	23511	2.002069636192	0
633	22017	2.001942756192	102
633	22093	2.001952516192	102
633	22189	2.001962276192	102
633	22297	2.001972036192	102
633	22432	2.001981796192	102
633	22536	2.001991556192	102
633	22868	2.002020836192	102
633	22961	2.002030596192	102
633	23089	2.002040356192	102
633	23225	2.002050116192	102
633	23511	2.002069636192	102
634	22017	2.001942756192	0
634	22093	2.001952516192	0
634	22189	2.001962276192	0
634	22297	2.001972036192	0
634	22432	2.001981796192	0
634	22536	2.001991556192	0
634	22868	2.002020836192	0
634	22961	2.002030596192	0
634	23089	2.002040356192	0
634	23225	2.002050116192	0
634	23511	2.002069636192	0
635	22017	2.001942756192	0
635	22017	2.001942756192	0
635	22017	2.001942756192	0
635	22093	2.001952516192	0
635	22093	2.001952516192	0
635	22093	2.001952516192	0
635	22189	2.001962276192	0
635	22189	2.001962276192	0
635	22189	2.001962276192	0
635	22297	2.001972036192	0
635	22297	2.001972036192	0
635	22297	2.001972036192	0
635	22432	2.001981796192	0
635	22432	2.001981796192	0
635	22432	2.001981796192	0
635	22536	2.001991556192	0
635	22536	2.001991556192	0
635	22536	2.001991556192	0
635	22868	2.002020836192	0
635	22868	2.002020836192	0
635	22868	2.002020836192	0
635	22961	2.002030596192	0
635	22961	2.002030596192	0
635	22961	2.002030596192	0
635	23089	2.002040356192	0
635	23089	2.002040356192	0
635	23089	2.002040356192	0
635	23225	2.002050116192	0
635	23225	2.002050116192	0
635	23225	2.002050116192	0
635	23511	2.002069636192	0
635	23511	2.002069636192	0
635	23511	2.002069636192	0
636	22017	2.001942756192	102
636	22093	2.001952516192	102
636	22189	2.001962276192	102
636	22297	2.001972036192	102
636	22432	2.001981796192	102
636	22536	2.001991556192	102
636	22868	2.002020836192	102
636	22961	2.002030596192	102
636	23089	2.002040356192	102
636	23225	2.002050116192	102
636	23511	2.002069636192	102
637	22017	2.001942756192	102
637	22093	2.001952516192	102
637	22189	2.001962276192	102
637	22297	2.001972036192	102
637	22432	2.001981796192	102
637	22536	2.001991556192	102
637	22868	2.002020836192	102
637	22961	2.002030596192	102
637	23089	2.002040356192	102
637	23225	2.002050116192	102
637	23511	2.002069636192	102
638	22738	2.002010311783	102
638	22906	2.002026791783	102
638	23022	2.002036551783	102
638	23173	2.002046311783	102
638	23331	2.002056071783	102
638	23467	2.002065831783	102
638	23583	2.002075591783	102
639	22739	2.002010361783	102
639	22907	2.002026841783	102
639	23023	2.002036601783	102
639	23174	2.002046361783	102
639	23332	2.002056121783	102
639	23470	2.002065881783	102
639	23584	2.002075641783	102
640	22739	2.002010361783	102
640	22907	2.002026841783	102
640	23023	2.002036601783	102
640	23174	2.002046361783	102
640	23332	2.002056121783	102
640	23470	2.002065881783	102
640	23584	2.002075641783	102
641	22740	2.002010361783	84
641	22908	2.002026841783	84
641	23025	2.002036601783	84
641	23176	2.002046361783	84
641	23334	2.002056121783	84
641	23472	2.002065881783	84
641	23586	2.002075641783	84
642	21982	2.001941796192	102
642	22063	2.001951556192	102
642	22160	2.001961316192	102
642	22263	2.001971076192	102
642	22404	2.001980836192	102
642	22505	2.001990596192	102
642	22623	2.002000356192	102
642	22946	2.002029636192	102
642	23066	2.002039396192	102
642	23207	2.002049156192	102
642	23364	2.002058916192	102
642	23605	2.002078436192	102
643	21983	2.001941846192	102
643	22064	2.001951606192	102
643	22161	2.001961366192	102
643	22264	2.001971126192	102
643	22405	2.001980886192	102
643	22506	2.001990646192	102
643	22624	2.002000406192	102
643	22947	2.002029686192	102
643	23067	2.002039446192	102
643	23210	2.002049206192	102
643	23365	2.002058966192	102
643	23606	2.002078486192	102
644	21983	2.001941846192	102
644	22064	2.001951606192	102
644	22161	2.001961366192	102
644	22264	2.001971126192	102
644	22405	2.001980886192	102
644	22506	2.001990646192	102
644	22624	2.002000406192	102
644	22947	2.002029686192	102
644	23067	2.002039446192	102
644	23210	2.002049206192	102
644	23365	2.002058966192	102
644	23606	2.002078486192	102
645	21985	2.001941846192	84
645	22066	2.001951606192	84
645	22163	2.001961366192	84
645	22266	2.001971126192	84
645	22407	2.001980886192	84
645	22508	2.001990646192	84
645	22626	2.002000406192	84
645	22948	2.002029686192	84
645	23069	2.002039446192	84
645	23212	2.002049206192	84
645	23367	2.002058966192	84
645	23607	2.002078486192	84
646	22639	2.002001316192	84
646	22749	2.002011076192	84
646	23379	2.002059876192	84
647	22640	2.002001316192	102
647	22750	2.002011076192	102
647	23380	2.002059876192	102
648	22640	2.002001316192	102
648	22750	2.002011076192	102
648	23380	2.002059876192	102
649	22640	2.002001316192	1
649	22640	2.002001316192	0
649	22750	2.002011076192	1
649	22750	2.002011076192	0
649	23380	2.002059876192	1
649	23380	2.002059876192	0
650	22640	2.002001316192	102
650	22750	2.002011076192	102
650	23380	2.002059876192	102
651	22640	2.002001316192	102
651	22750	2.002011076192	102
651	23380	2.002059876192	102
652	22640	2.002001316192	1
652	22640	2.002001316192	0
652	22750	2.002011076192	1
652	22750	2.002011076192	0
652	23380	2.002059876192	1
652	23380	2.002059876192	0
653	22640	2.002001316192	102
653	22750	2.002011076192	102
653	23380	2.002059876192	102
654	22640	2.002001316192	0
654	22750	2.002011076192	0
654	23380	2.002059876192	0
655	22640	2.002001316192	0
655	22640	2.002001316192	0
655	22640	2.002001316192	0
655	22750	2.002011076192	0
655	22750	2.002011076192	0
655	22750	2.002011076192	0
655	23380	2.002059876192	0
655	23380	2.002059876192	0
655	23380	2.002059876192	0
656	22640	2.002001316192	102
656	22750	2.002011076192	102
656	23380	2.002059876192	102
657	22640	2.002001316192	102
657	22750	2.002011076192	102
657	23380	2.002059876192	102
658	22731	2.002010116192	102
658	22843	2.002019876192	102
658	23496	2.002068676192	102
659	22732	2.002010166192	102
659	22844	2.002019926192	102
659	23497	2.002068726192	102
660	22732	2.002010166192	102
660	22844	2.002019926192	102
660	23497	2.002068726192	102
661	22734	2.002010166192	84
661	22845	2.002019926192	84
661	23499	2.002068726192	84
702	23170	2.002045721783	102
702	23324	2.002055481783	102
702	23502	2.002068726192	102
706	21967	2.001940236749	102
706	22148	2.001960236749	102
707	22524	2.001991330535	102
708	21959	2.001940076192	55
708	22140	2.001959596192	56
708	22382	2.001979116192	58
709	21959	2.001940076192	0.000807354409
709	22140	2.001959596192	0.000806874409
709	22382	2.001979116192	0.000786394409
710	21959	2.001940076192	49
710	22382	2.001979116192	50
