version 2
run TestDDoSBot_PacketGenerator-0-20200914-10:12:26-2444
attr configname TestDDoSBot_PacketGenerator
attr datetime 20200914-10:12:26
attr experiment TestDDoSBot_PacketGenerator
attr inifile test.ini
attr iterationvars ""
attr iterationvarsf ""
attr measurement ""
attr network TestBot
attr processid 2444
attr repetition 0
attr replication #0
attr resultdir results
attr runnumber 0
attr seedset 0
param *.bot.numPktGen 1
param *.bot.pg[*].destAddr "\"recvhost\""
param *.bot.pg[*].localPort 1234
param *.bot.pg[*].destPort 1234
param *.bot.pg[*].sendInterval 0.01ms
param *.bot.pg[0].packetType "\"ICMP\""
param *.bot.pg[0].packetName "\"ICMPFlood\""
param *.bot.numApps 1
param *.recvhost.numApps 1
param *.bot.app[0].typename "\"TcpSessionApp\""
param *.bot.app[0].connectAddress "\"recvhost\""
param *.bot.app[0].connectPort 1236
param *.bot.app[0].sendBytes 300kB
param *.recvhost.app[0].typename "\"TcpEchoApp\""
param *.recvhost.app[0].localPort 1236
param *.recvhost.app[0].echoFactor 2.0
param *.recvhost.app[0].echoDelay 0.01s
param *.router.numPcapRecorders 1
param *.router.pcapRecorder[0].pcapFile "\"results/testBotRouterCap.pcap\""
param *.router.pcapRecorder[0].pcapLinkType 1
param **.crcMode "\"computed\""
param **.fcsMode "\"computed\""
param *.visualizer.*.interfaceTableVisualizer.displayInterfaceTables true

vector 0 TestBot.bot.ipv4.arp arpRequestSent:vector(packetBytes) ETV
attr source arpRequestSent
attr title "ARP request sent, vector(packetBytes)"
vector 1 TestBot.bot.eth[0].encap encapPk:vector(packetBytes) ETV
attr interpolationmode none
attr source encapPk
attr title "packets encapsulated, vector(packetBytes)"
vector 2 TestBot.bot.eth[0].mac packetReceivedFromUpper:vector(packetBytes) ETV
attr interpolationmode none
attr source packetReceivedFromUpper
attr title "packet bytes from higher layer, vector(packetBytes)"
vector 3 TestBot.bot.eth[0].mac.queue packetPushed:vector(packetBytes) ETV
attr interpolationmode none
attr title "packet pushed, vector(packetBytes)"
vector 4 TestBot.bot.eth[0].mac.queue queueLength:vector ETV
attr interpolationmode sample-hold
attr source "count(packetPushed) - count(packetPopped) - count(packetRemoved) - count(packetDropped)"
attr title "queue length, vector"
vector 5 TestBot.bot.eth[0].mac.queue packetPopped:vector(packetBytes) ETV
attr interpolationmode none
attr title "packet popped, vector(packetBytes)"
vector 6 TestBot.bot.eth[0].mac.queue queueingTime:vector ETV
attr interpolationmode none
attr source queueingTime(packetPopped)
attr title "queueing times, vector"
attr unit s
vector 7 TestBot.bot.eth[0].mac txPk:vector(packetBytes) ETV
attr interpolationmode none
attr source packetSentToLower
attr title "packets transmitted, vector(packetBytes)"
vector 8 TestBot.router.eth[0].mac rxPkOk:vector(packetBytes) ETV
attr interpolationmode none
attr source rxPkOk
attr title "packets received OK, vector(packetBytes)"
vector 9 TestBot.router.eth[0].mac passedUpPk:vector(packetBytes) ETV
attr interpolationmode none
attr source packetSentToUpper
attr title "packets passed to higher layer, vector(packetBytes)"
vector 10 TestBot.router.eth[0].encap decapPk:vector(packetBytes) ETV
attr interpolationmode none
attr source decapPk
attr title "packets decapsulated, vector(packetBytes)"
vector 11 TestBot.router.ipv4.arp arpReplySent:vector(packetBytes) ETV
attr source arpReplySent
attr title "ARP replies sent, vector(packetBytes)"
vector 12 TestBot.router.eth[0].encap encapPk:vector(packetBytes) ETV
attr interpolationmode none
attr source encapPk
attr title "packets encapsulated, vector(packetBytes)"
vector 13 TestBot.router.eth[0].mac packetReceivedFromUpper:vector(packetBytes) ETV
attr interpolationmode none
attr source packetReceivedFromUpper
attr title "packet bytes from higher layer, vector(packetBytes)"
vector 14 TestBot.router.eth[0].mac.queue packetPushed:vector(packetBytes) ETV
attr interpolationmode none
attr title "packet pushed, vector(packetBytes)"
vector 15 TestBot.router.eth[0].mac.queue queueLength:vector ETV
attr interpolationmode sample-hold
attr source "count(packetPushed) - count(packetPopped) - count(packetRemoved) - count(packetDropped)"
attr title "queue length, vector"
vector 16 TestBot.router.eth[0].mac.queue packetPopped:vector(packetBytes) ETV
attr interpolationmode none
attr title "packet popped, vector(packetBytes)"
vector 17 TestBot.router.eth[0].mac.queue queueingTime:vector ETV
attr interpolationmode none
attr source queueingTime(packetPopped)
attr title "queueing times, vector"
attr unit s
vector 18 TestBot.router.eth[0].mac txPk:vector(packetBytes) ETV
attr interpolationmode none
attr source packetSentToLower
attr title "packets transmitted, vector(packetBytes)"
vector 19 TestBot.bot.eth[0].mac rxPkOk:vector(packetBytes) ETV
attr interpolationmode none
attr source rxPkOk
attr title "packets received OK, vector(packetBytes)"
vector 20 TestBot.bot.eth[0].mac passedUpPk:vector(packetBytes) ETV
attr interpolationmode none
attr source packetSentToUpper
attr title "packets passed to higher layer, vector(packetBytes)"
vector 21 TestBot.bot.eth[0].encap decapPk:vector(packetBytes) ETV
attr interpolationmode none
attr source decapPk
attr title "packets decapsulated, vector(packetBytes)"
vector 22 TestBot.router.ipv4.arp arpRequestSent:vector(packetBytes) ETV
attr source arpRequestSent
attr title "ARP request sent, vector(packetBytes)"
vector 23 TestBot.router.eth[1].encap encapPk:vector(packetBytes) ETV
attr interpolationmode none
attr source encapPk
attr title "packets encapsulated, vector(packetBytes)"
vector 24 TestBot.router.eth[1].mac packetReceivedFromUpper:vector(packetBytes) ETV
attr interpolationmode none
attr source packetReceivedFromUpper
attr title "packet bytes from higher layer, vector(packetBytes)"
vector 25 TestBot.router.eth[1].mac.queue packetPushed:vector(packetBytes) ETV
attr interpolationmode none
attr title "packet pushed, vector(packetBytes)"
vector 26 TestBot.router.eth[1].mac.queue queueLength:vector ETV
attr interpolationmode sample-hold
attr source "count(packetPushed) - count(packetPopped) - count(packetRemoved) - count(packetDropped)"
attr title "queue length, vector"
vector 27 TestBot.router.eth[1].mac.queue packetPopped:vector(packetBytes) ETV
attr interpolationmode none
attr title "packet popped, vector(packetBytes)"
vector 28 TestBot.router.eth[1].mac.queue queueingTime:vector ETV
attr interpolationmode none
attr source queueingTime(packetPopped)
attr title "queueing times, vector"
attr unit s
vector 29 TestBot.router.eth[1].mac txPk:vector(packetBytes) ETV
attr interpolationmode none
attr source packetSentToLower
attr title "packets transmitted, vector(packetBytes)"
vector 30 TestBot.recvhost.eth[0].mac rxPkOk:vector(packetBytes) ETV
attr interpolationmode none
attr source rxPkOk
attr title "packets received OK, vector(packetBytes)"
vector 31 TestBot.recvhost.eth[0].mac passedUpPk:vector(packetBytes) ETV
attr interpolationmode none
attr source packetSentToUpper
attr title "packets passed to higher layer, vector(packetBytes)"
vector 32 TestBot.recvhost.eth[0].encap decapPk:vector(packetBytes) ETV
attr interpolationmode none
attr source decapPk
attr title "packets decapsulated, vector(packetBytes)"
vector 33 TestBot.recvhost.ipv4.arp arpReplySent:vector(packetBytes) ETV
attr source arpReplySent
attr title "ARP replies sent, vector(packetBytes)"
vector 34 TestBot.recvhost.eth[0].encap encapPk:vector(packetBytes) ETV
attr interpolationmode none
attr source encapPk
attr title "packets encapsulated, vector(packetBytes)"
vector 35 TestBot.recvhost.eth[0].mac packetReceivedFromUpper:vector(packetBytes) ETV
attr interpolationmode none
attr source packetReceivedFromUpper
attr title "packet bytes from higher layer, vector(packetBytes)"
vector 36 TestBot.recvhost.eth[0].mac.queue packetPushed:vector(packetBytes) ETV
attr interpolationmode none
attr title "packet pushed, vector(packetBytes)"
vector 37 TestBot.recvhost.eth[0].mac.queue queueLength:vector ETV
attr interpolationmode sample-hold
attr source "count(packetPushed) - count(packetPopped) - count(packetRemoved) - count(packetDropped)"
attr title "queue length, vector"
vector 38 TestBot.recvhost.eth[0].mac.queue packetPopped:vector(packetBytes) ETV
attr interpolationmode none
attr title "packet popped, vector(packetBytes)"
vector 39 TestBot.recvhost.eth[0].mac.queue queueingTime:vector ETV
attr interpolationmode none
attr source queueingTime(packetPopped)
attr title "queueing times, vector"
attr unit s
vector 40 TestBot.recvhost.eth[0].mac txPk:vector(packetBytes) ETV
attr interpolationmode none
attr source packetSentToLower
attr title "packets transmitted, vector(packetBytes)"
vector 41 TestBot.router.eth[1].mac rxPkOk:vector(packetBytes) ETV
attr interpolationmode none
attr source rxPkOk
attr title "packets received OK, vector(packetBytes)"
vector 42 TestBot.router.eth[1].mac passedUpPk:vector(packetBytes) ETV
attr interpolationmode none
attr source packetSentToUpper
attr title "packets passed to higher layer, vector(packetBytes)"
vector 43 TestBot.router.eth[1].encap decapPk:vector(packetBytes) ETV
attr interpolationmode none
attr source decapPk
attr title "packets decapsulated, vector(packetBytes)"
0	3	0.00001	28
1	4	0.00001	28
1	19	0.00002162	1500
1	20	0.00002162	1500
1	26	0.00003	1500
1	30	0.00004	1500
1	34	0.00005	1500
1	38	0.00006	1500
1	42	0.00007	1500
1	46	0.00008	1500
1	50	0.00009	1500
1	54	0.0001	1500
1	58	0.00011	1500
1	62	0.00012	1500
1	66	0.00013	1500
1	70	0.00014	1500
1	87	0.00015	1500
1	99	0.00016	1500
1	103	0.00017	1500
1	107	0.00018	1500
1	111	0.00019	1500
1	115	0.0002	1500
1	119	0.00021	1500
1	123	0.00022	1500
1	127	0.00023	1500
1	131	0.00024	1500
1	135	0.00025	1500
1	139	0.00026	1500
1	150	0.00027	1500
1	163	0.00028	1500
1	167	0.00029	1500
1	171	0.0003	1500
1	175	0.00031	1500
1	179	0.00032	1500
1	183	0.00033	1500
1	187	0.00034	1500
1	191	0.00035	1500
1	195	0.00036	1500
1	199	0.00037	1500
1	203	0.00038	1500
1	213	0.00039	1500
1	224	0.0004	1500
1	238	0.00041	1500
1	242	0.00042	1500
1	246	0.00043	1500
1	250	0.00044	1500
1	254	0.00045	1500
1	258	0.00046	1500
1	262	0.00047	1500
1	266	0.00048	1500
1	270	0.00049	1500
1	274	0.0005	1500
1	278	0.00051	1500
1	289	0.00052	1500
1	315	0.00053	1500
1	319	0.00054	1500
1	323	0.00055	1500
1	327	0.00056	1500
1	331	0.00057	1500
1	335	0.00058	1500
1	339	0.00059	1500
1	343	0.0006	1500
1	347	0.00061	1500
1	351	0.00062	1500
1	355	0.00063	1500
1	366	0.00064	1500
1	392	0.00065	1500
1	396	0.00066	1500
1	400	0.00067	1500
1	404	0.00068	1500
1	408	0.00069	1500
1	412	0.0007	1500
1	416	0.00071	1500
1	420	0.00072	1500
1	424	0.00073	1500
1	428	0.00074	1500
1	432	0.00075	1500
1	443	0.00076	1500
1	468	0.00077	1500
1	473	0.00078	1500
1	477	0.00079	1500
1	481	0.0008	1500
1	485	0.00081	1500
1	489	0.00082	1500
1	493	0.00083	1500
1	497	0.00084	1500
1	501	0.00085	1500
1	505	0.00086	1500
1	509	0.00087	1500
1	513	0.00088	1500
1	524	0.00089	1500
1	550	0.0009	1500
1	554	0.00091	1500
1	558	0.00092	1500
1	562	0.00093	1500
1	566	0.00094	1500
1	570	0.00095	1500
1	574	0.00096	1500
1	578	0.00097	1500
1	582	0.00098	1500
1	586	0.00099	1500
1	590	0.001	1500
1	601	0.00101	1500
1	627	0.00102	1500
1	631	0.00103	1500
1	635	0.00104	1500
1	639	0.00105	1500
1	643	0.00106	1500
1	647	0.00107	1500
1	651	0.00108	1500
1	655	0.00109	1500
1	659	0.0011	1500
1	663	0.00111	1500
1	667	0.00112	1500
1	678	0.00113	1500
1	704	0.00114	1500
1	708	0.00115	1500
1	712	0.00116	1500
1	716	0.00117	1500
1	720	0.00118	1500
1	724	0.00119	1500
1	728	0.0012	1500
1	732	0.00121	1500
1	736	0.00122	1500
1	740	0.00123	1500
1	744	0.00124	1500
1	748	0.00125	1500
1	763	0.00126	1500
1	785	0.00127	1500
1	789	0.00128	1500
1	793	0.00129	1500
1	797	0.0013	1500
1	801	0.00131	1500
1	805	0.00132	1500
1	809	0.00133	1500
1	813	0.00134	1500
1	817	0.00135	1500
1	821	0.00136	1500
1	825	0.00137	1500
1	836	0.00138	1500
1	862	0.00139	1500
1	866	0.0014	1500
1	870	0.00141	1500
1	874	0.00142	1500
1	878	0.00143	1500
1	882	0.00144	1500
1	886	0.00145	1500
1	890	0.00146	1500
1	894	0.00147	1500
1	898	0.00148	1500
1	902	0.00149	1500
1	913	0.0015	1500
1	939	0.00151	1500
1	943	0.00152	1500
1	947	0.00153	1500
1	951	0.00154	1500
1	955	0.00155	1500
1	959	0.00156	1500
1	963	0.00157	1500
1	967	0.00158	1500
1	971	0.00159	1500
1	975	0.0016	1500
1	979	0.00161	1500
1	983	0.00162	1500
1	1000	0.00163	1500
1	1020	0.00164	1500
1	1024	0.00165	1500
1	1028	0.00166	1500
1	1032	0.00167	1500
1	1036	0.00168	1500
1	1040	0.00169	1500
1	1044	0.0017	1500
1	1048	0.00171	1500
1	1052	0.00172	1500
1	1056	0.00173	1500
1	1060	0.00174	1500
1	1071	0.00175	1500
1	1097	0.00176	1500
1	1101	0.00177	1500
1	1105	0.00178	1500
1	1109	0.00179	1500
1	1113	0.0018	1500
1	1117	0.00181	1500
1	1121	0.00182	1500
1	1125	0.00183	1500
1	1129	0.00184	1500
1	1133	0.00185	1500
1	1137	0.00186	1500
1	1148	0.00187	1500
1	1174	0.00188	1500
1	1178	0.00189	1500
1	1182	0.0019	1500
1	1186	0.00191	1500
1	1190	0.00192	1500
1	1194	0.00193	1500
1	1198	0.00194	1500
1	1202	0.00195	1500
1	1206	0.00196	1500
1	1210	0.00197	1500
1	1214	0.00198	1500
1	1224	0.00199	1500
1	1241	0.002	1500
1	1255	0.00201	1500
1	1259	0.00202	1500
1	1263	0.00203	1500
1	1267	0.00204	1500
1	1271	0.00205	1500
1	1275	0.00206	1500
1	1279	0.00207	1500
1	1283	0.00208	1500
1	1287	0.00209	1500
1	1291	0.0021	1500
1	1295	0.00211	1500
1	1306	0.00212	1500
1	1332	0.00213	1500
1	1336	0.00214	1500
1	1340	0.00215	1500
1	1344	0.00216	1500
1	1348	0.00217	1500
1	1352	0.00218	1500
1	1356	0.00219	1500
1	1360	0.0022	1500
1	1364	0.00221	1500
1	1368	0.00222	1500
1	1372	0.00223	1500
1	1383	0.00224	1500
1	1409	0.00225	1500
1	1413	0.00226	1500
1	1417	0.00227	1500
1	1421	0.00228	1500
1	1425	0.00229	1500
1	1429	0.0023	1500
1	1433	0.00231	1500
1	1437	0.00232	1500
1	1441	0.00233	1500
1	1445	0.00234	1500
1	1449	0.00235	1500
1	1460	0.00236	1500
1	1485	0.00237	1500
1	1490	0.00238	1500
1	1494	0.00239	1500
1	1498	0.0024	1500
1	1502	0.00241	1500
1	1506	0.00242	1500
1	1510	0.00243	1500
1	1514	0.00244	1500
1	1518	0.00245	1500
1	1522	0.00246	1500
1	1526	0.00247	1500
1	1530	0.00248	1500
1	1541	0.00249	1500
1	1567	0.0025	1500
1	1571	0.00251	1500
1	1575	0.00252	1500
1	1579	0.00253	1500
1	1583	0.00254	1500
1	1587	0.00255	1500
1	1591	0.00256	1500
1	1595	0.00257	1500
1	1599	0.00258	1500
1	1603	0.00259	1500
1	1607	0.0026	1500
1	1618	0.00261	1500
1	1644	0.00262	1500
1	1648	0.00263	1500
1	1652	0.00264	1500
1	1656	0.00265	1500
1	1660	0.00266	1500
1	1664	0.00267	1500
1	1668	0.00268	1500
1	1672	0.00269	1500
1	1676	0.0027	1500
1	1680	0.00271	1500
1	1684	0.00272	1500
1	1695	0.00273	1500
1	1721	0.00274	1500
1	1725	0.00275	1500
1	1729	0.00276	1500
1	1733	0.00277	1500
1	1737	0.00278	1500
1	1741	0.00279	1500
1	1745	0.0028	1500
1	1749	0.00281	1500
1	1753	0.00282	1500
1	1757	0.00283	1500
1	1761	0.00284	1500
1	1765	0.00285	1500
1	1781	0.00286	1500
1	1802	0.00287	1500
1	1806	0.00288	1500
1	1810	0.00289	1500
1	1814	0.0029	1500
1	1818	0.00291	1500
1	1822	0.00292	1500
1	1826	0.00293	1500
1	1830	0.00294	1500
1	1834	0.00295	1500
1	1838	0.00296	1500
1	1842	0.00297	1500
1	1853	0.00298	1500
1	1879	0.00299	1500
1	1883	0.003	1500
1	1887	0.00301	1500
1	1891	0.00302	1500
1	1895	0.00303	1500
1	1899	0.00304	1500
1	1903	0.00305	1500
1	1907	0.00306	1500
1	1911	0.00307	1500
1	1915	0.00308	1500
1	1919	0.00309	1500
1	1930	0.0031	1500
1	1956	0.00311	1500
1	1960	0.00312	1500
1	1964	0.00313	1500
1	1968	0.00314	1500
1	1972	0.00315	1500
1	1976	0.00316	1500
1	1980	0.00317	1500
1	1984	0.00318	1500
1	1988	0.00319	1500
1	1992	0.0032	1500
1	1996	0.00321	1500
1	2006	0.00322	1500
1	2023	0.00323	1500
1	2037	0.00324	1500
1	2041	0.00325	1500
1	2045	0.00326	1500
1	2049	0.00327	1500
1	2053	0.00328	1500
1	2057	0.00329	1500
1	2061	0.0033	1500
1	2065	0.00331	1500
1	2069	0.00332	1500
1	2073	0.00333	1500
1	2077	0.00334	1500
1	2088	0.00335	1500
1	2114	0.00336	1500
1	2118	0.00337	1500
1	2122	0.00338	1500
1	2126	0.00339	1500
1	2130	0.0034	1500
1	2134	0.00341	1500
1	2138	0.00342	1500
1	2142	0.00343	1500
1	2146	0.00344	1500
1	2150	0.00345	1500
1	2154	0.00346	1500
1	2165	0.00347	1500
1	2191	0.00348	1500
1	2195	0.00349	1500
1	2199	0.0035	1500
1	2203	0.00351	1500
1	2207	0.00352	1500
1	2211	0.00353	1500
1	2215	0.00354	1500
1	2219	0.00355	1500
1	2223	0.00356	1500
1	2227	0.00357	1500
1	2231	0.00358	1500
1	2242	0.00359	1500
1	2267	0.0036	1500
1	2272	0.00361	1500
1	2276	0.00362	1500
1	2280	0.00363	1500
1	2284	0.00364	1500
1	2288	0.00365	1500
1	2292	0.00366	1500
1	2296	0.00367	1500
1	2300	0.00368	1500
1	2304	0.00369	1500
1	2308	0.0037	1500
1	2312	0.00371	1500
1	2323	0.00372	1500
2	5	0.00001	46
2	21	0.00002162	1518
2	22	0.00002162	1518
2	27	0.00003	1518
2	31	0.00004	1518
2	35	0.00005	1518
2	39	0.00006	1518
2	43	0.00007	1518
2	47	0.00008	1518
2	51	0.00009	1518
2	55	0.0001	1518
2	59	0.00011	1518
2	63	0.00012	1518
2	67	0.00013	1518
2	71	0.00014	1518
2	88	0.00015	1518
2	100	0.00016	1518
2	104	0.00017	1518
2	108	0.00018	1518
2	112	0.00019	1518
2	116	0.0002	1518
2	120	0.00021	1518
2	124	0.00022	1518
2	128	0.00023	1518
2	132	0.00024	1518
2	136	0.00025	1518
2	140	0.00026	1518
2	151	0.00027	1518
2	164	0.00028	1518
2	168	0.00029	1518
2	172	0.0003	1518
2	176	0.00031	1518
2	180	0.00032	1518
2	184	0.00033	1518
2	188	0.00034	1518
2	192	0.00035	1518
2	196	0.00036	1518
2	200	0.00037	1518
2	204	0.00038	1518
2	214	0.00039	1518
2	225	0.0004	1518
2	239	0.00041	1518
2	243	0.00042	1518
2	247	0.00043	1518
2	251	0.00044	1518
2	255	0.00045	1518
2	259	0.00046	1518
2	263	0.00047	1518
2	267	0.00048	1518
2	271	0.00049	1518
2	275	0.0005	1518
2	279	0.00051	1518
2	290	0.00052	1518
2	316	0.00053	1518
2	320	0.00054	1518
2	324	0.00055	1518
2	328	0.00056	1518
2	332	0.00057	1518
2	336	0.00058	1518
2	340	0.00059	1518
2	344	0.0006	1518
2	348	0.00061	1518
2	352	0.00062	1518
2	356	0.00063	1518
2	367	0.00064	1518
2	393	0.00065	1518
2	397	0.00066	1518
2	401	0.00067	1518
2	405	0.00068	1518
2	409	0.00069	1518
2	413	0.0007	1518
2	417	0.00071	1518
2	421	0.00072	1518
2	425	0.00073	1518
2	429	0.00074	1518
2	433	0.00075	1518
2	444	0.00076	1518
2	469	0.00077	1518
2	474	0.00078	1518
2	478	0.00079	1518
2	482	0.0008	1518
2	486	0.00081	1518
2	490	0.00082	1518
2	494	0.00083	1518
2	498	0.00084	1518
2	502	0.00085	1518
2	506	0.00086	1518
2	510	0.00087	1518
2	514	0.00088	1518
2	525	0.00089	1518
2	551	0.0009	1518
2	555	0.00091	1518
2	559	0.00092	1518
2	563	0.00093	1518
2	567	0.00094	1518
2	571	0.00095	1518
2	575	0.00096	1518
2	579	0.00097	1518
2	583	0.00098	1518
2	587	0.00099	1518
2	591	0.001	1518
2	602	0.00101	1518
2	628	0.00102	1518
2	632	0.00103	1518
2	636	0.00104	1518
2	640	0.00105	1518
2	644	0.00106	1518
2	648	0.00107	1518
2	652	0.00108	1518
2	656	0.00109	1518
2	660	0.0011	1518
2	664	0.00111	1518
2	668	0.00112	1518
2	679	0.00113	1518
2	705	0.00114	1518
2	709	0.00115	1518
2	713	0.00116	1518
2	717	0.00117	1518
2	721	0.00118	1518
2	725	0.00119	1518
2	729	0.0012	1518
2	733	0.00121	1518
2	737	0.00122	1518
2	741	0.00123	1518
2	745	0.00124	1518
2	749	0.00125	1518
2	765	0.00126	1518
2	786	0.00127	1518
2	790	0.00128	1518
2	794	0.00129	1518
2	798	0.0013	1518
2	802	0.00131	1518
2	806	0.00132	1518
2	810	0.00133	1518
2	814	0.00134	1518
2	818	0.00135	1518
2	822	0.00136	1518
2	826	0.00137	1518
2	837	0.00138	1518
2	863	0.00139	1518
2	867	0.0014	1518
2	871	0.00141	1518
2	875	0.00142	1518
2	879	0.00143	1518
2	883	0.00144	1518
2	887	0.00145	1518
2	891	0.00146	1518
2	895	0.00147	1518
2	899	0.00148	1518
2	903	0.00149	1518
2	914	0.0015	1518
2	940	0.00151	1518
2	944	0.00152	1518
2	948	0.00153	1518
2	952	0.00154	1518
2	956	0.00155	1518
2	960	0.00156	1518
2	964	0.00157	1518
2	968	0.00158	1518
2	972	0.00159	1518
2	976	0.0016	1518
2	980	0.00161	1518
2	984	0.00162	1518
2	1001	0.00163	1518
2	1021	0.00164	1518
2	1025	0.00165	1518
2	1029	0.00166	1518
2	1033	0.00167	1518
2	1037	0.00168	1518
2	1041	0.00169	1518
2	1045	0.0017	1518
2	1049	0.00171	1518
2	1053	0.00172	1518
2	1057	0.00173	1518
2	1061	0.00174	1518
2	1072	0.00175	1518
2	1098	0.00176	1518
2	1102	0.00177	1518
2	1106	0.00178	1518
2	1110	0.00179	1518
2	1114	0.0018	1518
2	1118	0.00181	1518
2	1122	0.00182	1518
2	1126	0.00183	1518
2	1130	0.00184	1518
2	1134	0.00185	1518
2	1138	0.00186	1518
2	1149	0.00187	1518
2	1175	0.00188	1518
2	1179	0.00189	1518
2	1183	0.0019	1518
2	1187	0.00191	1518
2	1191	0.00192	1518
2	1195	0.00193	1518
2	1199	0.00194	1518
2	1203	0.00195	1518
2	1207	0.00196	1518
2	1211	0.00197	1518
2	1215	0.00198	1518
2	1225	0.00199	1518
2	1242	0.002	1518
2	1256	0.00201	1518
2	1260	0.00202	1518
2	1264	0.00203	1518
2	1268	0.00204	1518
2	1272	0.00205	1518
2	1276	0.00206	1518
2	1280	0.00207	1518
2	1284	0.00208	1518
2	1288	0.00209	1518
2	1292	0.0021	1518
2	1296	0.00211	1518
2	1307	0.00212	1518
2	1333	0.00213	1518
2	1337	0.00214	1518
2	1341	0.00215	1518
2	1345	0.00216	1518
2	1349	0.00217	1518
2	1353	0.00218	1518
2	1357	0.00219	1518
2	1361	0.0022	1518
2	1365	0.00221	1518
2	1369	0.00222	1518
2	1373	0.00223	1518
2	1384	0.00224	1518
2	1410	0.00225	1518
2	1414	0.00226	1518
2	1418	0.00227	1518
2	1422	0.00228	1518
2	1426	0.00229	1518
2	1430	0.0023	1518
2	1434	0.00231	1518
2	1438	0.00232	1518
2	1442	0.00233	1518
2	1446	0.00234	1518
2	1450	0.00235	1518
2	1461	0.00236	1518
2	1486	0.00237	1518
2	1491	0.00238	1518
2	1495	0.00239	1518
2	1499	0.0024	1518
2	1503	0.00241	1518
2	1507	0.00242	1518
2	1511	0.00243	1518
2	1515	0.00244	1518
2	1519	0.00245	1518
2	1523	0.00246	1518
2	1527	0.00247	1518
2	1531	0.00248	1518
2	1542	0.00249	1518
2	1568	0.0025	1518
2	1572	0.00251	1518
2	1576	0.00252	1518
2	1580	0.00253	1518
2	1584	0.00254	1518
2	1588	0.00255	1518
2	1592	0.00256	1518
2	1596	0.00257	1518
2	1600	0.00258	1518
2	1604	0.00259	1518
2	1608	0.0026	1518
2	1619	0.00261	1518
2	1645	0.00262	1518
2	1649	0.00263	1518
2	1653	0.00264	1518
2	1657	0.00265	1518
2	1661	0.00266	1518
2	1665	0.00267	1518
2	1669	0.00268	1518
2	1673	0.00269	1518
2	1677	0.0027	1518
2	1681	0.00271	1518
2	1685	0.00272	1518
2	1696	0.00273	1518
2	1722	0.00274	1518
2	1726	0.00275	1518
2	1730	0.00276	1518
2	1734	0.00277	1518
2	1738	0.00278	1518
2	1742	0.00279	1518
2	1746	0.0028	1518
2	1750	0.00281	1518
2	1754	0.00282	1518
2	1758	0.00283	1518
2	1762	0.00284	1518
2	1766	0.00285	1518
2	1782	0.00286	1518
2	1803	0.00287	1518
2	1807	0.00288	1518
2	1811	0.00289	1518
2	1815	0.0029	1518
2	1819	0.00291	1518
2	1823	0.00292	1518
2	1827	0.00293	1518
2	1831	0.00294	1518
2	1835	0.00295	1518
2	1839	0.00296	1518
2	1843	0.00297	1518
2	1854	0.00298	1518
2	1880	0.00299	1518
2	1884	0.003	1518
2	1888	0.00301	1518
2	1892	0.00302	1518
2	1896	0.00303	1518
2	1900	0.00304	1518
2	1904	0.00305	1518
2	1908	0.00306	1518
2	1912	0.00307	1518
2	1916	0.00308	1518
2	1920	0.00309	1518
2	1931	0.0031	1518
2	1957	0.00311	1518
2	1961	0.00312	1518
2	1965	0.00313	1518
2	1969	0.00314	1518
2	1973	0.00315	1518
2	1977	0.00316	1518
2	1981	0.00317	1518
2	1985	0.00318	1518
2	1989	0.00319	1518
2	1993	0.0032	1518
2	1997	0.00321	1518
2	2007	0.00322	1518
2	2024	0.00323	1518
2	2038	0.00324	1518
2	2042	0.00325	1518
2	2046	0.00326	1518
2	2050	0.00327	1518
2	2054	0.00328	1518
2	2058	0.00329	1518
2	2062	0.0033	1518
2	2066	0.00331	1518
2	2070	0.00332	1518
2	2074	0.00333	1518
2	2078	0.00334	1518
2	2089	0.00335	1518
2	2115	0.00336	1518
2	2119	0.00337	1518
2	2123	0.00338	1518
2	2127	0.00339	1518
2	2131	0.0034	1518
2	2135	0.00341	1518
2	2139	0.00342	1518
2	2143	0.00343	1518
2	2147	0.00344	1518
2	2151	0.00345	1518
2	2155	0.00346	1518
2	2166	0.00347	1518
2	2192	0.00348	1518
2	2196	0.00349	1518
2	2200	0.0035	1518
2	2204	0.00351	1518
2	2208	0.00352	1518
2	2212	0.00353	1518
2	2216	0.00354	1518
2	2220	0.00355	1518
2	2224	0.00356	1518
2	2228	0.00357	1518
2	2232	0.00358	1518
2	2243	0.00359	1518
2	2268	0.0036	1518
2	2273	0.00361	1518
2	2277	0.00362	1518
2	2281	0.00363	1518
2	2285	0.00364	1518
2	2289	0.00365	1518
2	2293	0.00366	1518
2	2297	0.00367	1518
2	2301	0.00368	1518
2	2305	0.00369	1518
2	2309	0.0037	1518
2	2313	0.00371	1518
2	2324	0.00372	1518
3	5	0.00001	64
3	21	0.00002162	1518
3	22	0.00002162	1518
3	27	0.00003	1518
3	31	0.00004	1518
3	35	0.00005	1518
3	39	0.00006	1518
3	43	0.00007	1518
3	47	0.00008	1518
3	51	0.00009	1518
3	55	0.0001	1518
3	59	0.00011	1518
3	63	0.00012	1518
3	67	0.00013	1518
3	71	0.00014	1518
3	88	0.00015	1518
3	100	0.00016	1518
3	104	0.00017	1518
3	108	0.00018	1518
3	112	0.00019	1518
3	116	0.0002	1518
3	120	0.00021	1518
3	124	0.00022	1518
3	128	0.00023	1518
3	132	0.00024	1518
3	136	0.00025	1518
3	140	0.00026	1518
3	151	0.00027	1518
3	164	0.00028	1518
3	168	0.00029	1518
3	172	0.0003	1518
3	176	0.00031	1518
3	180	0.00032	1518
3	184	0.00033	1518
3	188	0.00034	1518
3	192	0.00035	1518
3	196	0.00036	1518
3	200	0.00037	1518
3	204	0.00038	1518
3	214	0.00039	1518
3	225	0.0004	1518
3	239	0.00041	1518
3	243	0.00042	1518
3	247	0.00043	1518
3	251	0.00044	1518
3	255	0.00045	1518
3	259	0.00046	1518
3	263	0.00047	1518
3	267	0.00048	1518
3	271	0.00049	1518
3	275	0.0005	1518
3	279	0.00051	1518
3	290	0.00052	1518
3	316	0.00053	1518
3	320	0.00054	1518
3	324	0.00055	1518
3	328	0.00056	1518
3	332	0.00057	1518
3	336	0.00058	1518
3	340	0.00059	1518
3	344	0.0006	1518
3	348	0.00061	1518
3	352	0.00062	1518
3	356	0.00063	1518
3	367	0.00064	1518
3	393	0.00065	1518
3	397	0.00066	1518
3	401	0.00067	1518
3	405	0.00068	1518
3	409	0.00069	1518
3	413	0.0007	1518
3	417	0.00071	1518
3	421	0.00072	1518
3	425	0.00073	1518
3	429	0.00074	1518
3	433	0.00075	1518
3	444	0.00076	1518
3	469	0.00077	1518
3	474	0.00078	1518
3	478	0.00079	1518
3	482	0.0008	1518
3	486	0.00081	1518
3	490	0.00082	1518
3	494	0.00083	1518
3	498	0.00084	1518
3	502	0.00085	1518
3	506	0.00086	1518
3	510	0.00087	1518
3	514	0.00088	1518
3	525	0.00089	1518
3	551	0.0009	1518
3	555	0.00091	1518
3	559	0.00092	1518
3	563	0.00093	1518
3	567	0.00094	1518
3	571	0.00095	1518
3	575	0.00096	1518
3	579	0.00097	1518
3	583	0.00098	1518
3	587	0.00099	1518
3	591	0.001	1518
3	602	0.00101	1518
3	628	0.00102	1518
3	632	0.00103	1518
3	636	0.00104	1518
3	640	0.00105	1518
3	644	0.00106	1518
3	648	0.00107	1518
3	652	0.00108	1518
3	656	0.00109	1518
3	660	0.0011	1518
3	664	0.00111	1518
3	668	0.00112	1518
3	679	0.00113	1518
3	705	0.00114	1518
3	709	0.00115	1518
3	713	0.00116	1518
3	717	0.00117	1518
3	721	0.00118	1518
3	725	0.00119	1518
3	729	0.0012	1518
3	733	0.00121	1518
3	737	0.00122	1518
3	741	0.00123	1518
3	745	0.00124	1518
3	749	0.00125	1518
3	765	0.00126	1518
3	786	0.00127	1518
3	790	0.00128	1518
3	794	0.00129	1518
3	798	0.0013	1518
3	802	0.00131	1518
3	806	0.00132	1518
3	810	0.00133	1518
3	814	0.00134	1518
3	818	0.00135	1518
3	822	0.00136	1518
3	826	0.00137	1518
3	837	0.00138	1518
3	863	0.00139	1518
3	867	0.0014	1518
3	871	0.00141	1518
3	875	0.00142	1518
3	879	0.00143	1518
3	883	0.00144	1518
3	887	0.00145	1518
3	891	0.00146	1518
3	895	0.00147	1518
3	899	0.00148	1518
3	903	0.00149	1518
3	914	0.0015	1518
3	940	0.00151	1518
3	944	0.00152	1518
3	948	0.00153	1518
3	952	0.00154	1518
3	956	0.00155	1518
3	960	0.00156	1518
3	964	0.00157	1518
3	968	0.00158	1518
3	972	0.00159	1518
3	976	0.0016	1518
3	980	0.00161	1518
3	984	0.00162	1518
3	1001	0.00163	1518
3	1021	0.00164	1518
3	1025	0.00165	1518
3	1029	0.00166	1518
3	1033	0.00167	1518
3	1037	0.00168	1518
3	1041	0.00169	1518
3	1045	0.0017	1518
3	1049	0.00171	1518
3	1053	0.00172	1518
3	1057	0.00173	1518
3	1061	0.00174	1518
3	1072	0.00175	1518
3	1098	0.00176	1518
3	1102	0.00177	1518
3	1106	0.00178	1518
3	1110	0.00179	1518
3	1114	0.0018	1518
3	1118	0.00181	1518
3	1122	0.00182	1518
3	1126	0.00183	1518
3	1130	0.00184	1518
3	1134	0.00185	1518
3	1138	0.00186	1518
3	1149	0.00187	1518
3	1175	0.00188	1518
3	1179	0.00189	1518
3	1183	0.0019	1518
3	1187	0.00191	1518
3	1191	0.00192	1518
3	1195	0.00193	1518
3	1199	0.00194	1518
3	1203	0.00195	1518
3	1207	0.00196	1518
3	1211	0.00197	1518
3	1215	0.00198	1518
3	1225	0.00199	1518
3	1242	0.002	1518
3	1256	0.00201	1518
3	1260	0.00202	1518
3	1264	0.00203	1518
3	1268	0.00204	1518
3	1272	0.00205	1518
3	1276	0.00206	1518
3	1280	0.00207	1518
3	1284	0.00208	1518
3	1288	0.00209	1518
3	1292	0.0021	1518
3	1296	0.00211	1518
3	1307	0.00212	1518
3	1333	0.00213	1518
3	1337	0.00214	1518
3	1341	0.00215	1518
3	1345	0.00216	1518
3	1349	0.00217	1518
3	1353	0.00218	1518
3	1357	0.00219	1518
3	1361	0.0022	1518
3	1365	0.00221	1518
3	1369	0.00222	1518
3	1373	0.00223	1518
3	1384	0.00224	1518
3	1410	0.00225	1518
3	1414	0.00226	1518
3	1418	0.00227	1518
3	1422	0.00228	1518
3	1426	0.00229	1518
3	1430	0.0023	1518
3	1434	0.00231	1518
3	1438	0.00232	1518
3	1442	0.00233	1518
3	1446	0.00234	1518
3	1450	0.00235	1518
3	1461	0.00236	1518
3	1486	0.00237	1518
3	1491	0.00238	1518
3	1495	0.00239	1518
3	1499	0.0024	1518
3	1503	0.00241	1518
3	1507	0.00242	1518
3	1511	0.00243	1518
3	1515	0.00244	1518
3	1519	0.00245	1518
3	1523	0.00246	1518
3	1527	0.00247	1518
3	1531	0.00248	1518
3	1542	0.00249	1518
3	1568	0.0025	1518
3	1572	0.00251	1518
3	1576	0.00252	1518
3	1580	0.00253	1518
3	1584	0.00254	1518
3	1588	0.00255	1518
3	1592	0.00256	1518
3	1596	0.00257	1518
3	1600	0.00258	1518
3	1604	0.00259	1518
3	1608	0.0026	1518
3	1619	0.00261	1518
3	1645	0.00262	1518
3	1649	0.00263	1518
3	1653	0.00264	1518
3	1657	0.00265	1518
3	1661	0.00266	1518
3	1665	0.00267	1518
3	1669	0.00268	1518
3	1673	0.00269	1518
3	1677	0.0027	1518
3	1681	0.00271	1518
3	1685	0.00272	1518
3	1696	0.00273	1518
3	1722	0.00274	1518
3	1726	0.00275	1518
3	1730	0.00276	1518
3	1734	0.00277	1518
3	1738	0.00278	1518
3	1742	0.00279	1518
3	1746	0.0028	1518
3	1750	0.00281	1518
3	1754	0.00282	1518
3	1758	0.00283	1518
3	1762	0.00284	1518
3	1766	0.00285	1518
3	1782	0.00286	1518
3	1803	0.00287	1518
3	1807	0.00288	1518
3	1811	0.00289	1518
3	1815	0.0029	1518
3	1819	0.00291	1518
3	1823	0.00292	1518
3	1827	0.00293	1518
3	1831	0.00294	1518
3	1835	0.00295	1518
3	1839	0.00296	1518
3	1843	0.00297	1518
3	1854	0.00298	1518
3	1880	0.00299	1518
3	1884	0.003	1518
3	1888	0.00301	1518
3	1892	0.00302	1518
3	1896	0.00303	1518
3	1900	0.00304	1518
3	1904	0.00305	1518
3	1908	0.00306	1518
3	1912	0.00307	1518
3	1916	0.00308	1518
3	1920	0.00309	1518
3	1931	0.0031	1518
3	1957	0.00311	1518
3	1961	0.00312	1518
3	1965	0.00313	1518
3	1969	0.00314	1518
3	1973	0.00315	1518
3	1977	0.00316	1518
3	1981	0.00317	1518
3	1985	0.00318	1518
3	1989	0.00319	1518
3	1993	0.0032	1518
3	1997	0.00321	1518
3	2007	0.00322	1518
3	2024	0.00323	1518
3	2038	0.00324	1518
3	2042	0.00325	1518
3	2046	0.00326	1518
3	2050	0.00327	1518
3	2054	0.00328	1518
3	2058	0.00329	1518
3	2062	0.0033	1518
3	2066	0.00331	1518
3	2070	0.00332	1518
3	2074	0.00333	1518
3	2078	0.00334	1518
3	2089	0.00335	1518
3	2115	0.00336	1518
3	2119	0.00337	1518
3	2123	0.00338	1518
3	2127	0.00339	1518
3	2131	0.0034	1518
3	2135	0.00341	1518
3	2139	0.00342	1518
3	2143	0.00343	1518
3	2147	0.00344	1518
3	2151	0.00345	1518
3	2155	0.00346	1518
3	2166	0.00347	1518
3	2192	0.00348	1518
3	2196	0.00349	1518
3	2200	0.0035	1518
3	2204	0.00351	1518
3	2208	0.00352	1518
3	2212	0.00353	1518
3	2216	0.00354	1518
3	2220	0.00355	1518
3	2224	0.00356	1518
3	2228	0.00357	1518
3	2232	0.00358	1518
3	2243	0.00359	1518
3	2268	0.0036	1518
3	2273	0.00361	1518
3	2277	0.00362	1518
3	2281	0.00363	1518
3	2285	0.00364	1518
3	2289	0.00365	1518
3	2293	0.00366	1518
3	2297	0.00367	1518
3	2301	0.00368	1518
3	2305	0.00369	1518
3	2309	0.0037	1518
3	2313	0.00371	1518
3	2324	0.00372	1518
4	5	0.00001	1
4	5	0.00001	0
4	21	0.00002162	1
4	21	0.00002162	0
4	22	0.00002162	1
4	27	0.00003	2
4	31	0.00004	3
4	35	0.00005	4
4	39	0.00006	5
4	43	0.00007	6
4	47	0.00008	7
4	51	0.00009	8
4	55	0.0001	9
4	59	0.00011	10
4	63	0.00012	11
4	67	0.00013	12
4	71	0.00014	13
4	78	0.00014466	12
4	88	0.00015	13
4	100	0.00016	14
4	104	0.00017	15
4	108	0.00018	16
4	112	0.00019	17
4	116	0.0002	18
4	120	0.00021	19
4	124	0.00022	20
4	128	0.00023	21
4	132	0.00024	22
4	136	0.00025	23
4	140	0.00026	24
4	147	0.0002677	23
4	151	0.00027	24
4	164	0.00028	25
4	168	0.00029	26
4	172	0.0003	27
4	176	0.00031	28
4	180	0.00032	29
4	184	0.00033	30
4	188	0.00034	31
4	192	0.00035	32
4	196	0.00036	33
4	200	0.00037	34
4	204	0.00038	35
4	214	0.00039	36
4	215	0.00039074	35
4	225	0.0004	36
4	239	0.00041	37
4	243	0.00042	38
4	247	0.00043	39
4	251	0.00044	40
4	255	0.00045	41
4	259	0.00046	42
4	263	0.00047	43
4	267	0.00048	44
4	271	0.00049	45
4	275	0.0005	46
4	279	0.00051	47
4	286	0.00051378	46
4	290	0.00052	47
4	316	0.00053	48
4	320	0.00054	49
4	324	0.00055	50
4	328	0.00056	51
4	332	0.00057	52
4	336	0.00058	53
4	340	0.00059	54
4	344	0.0006	55
4	348	0.00061	56
4	352	0.00062	57
4	356	0.00063	58
4	363	0.00063682	57
4	367	0.00064	58
4	393	0.00065	59
4	397	0.00066	60
4	401	0.00067	61
4	405	0.00068	62
4	409	0.00069	63
4	413	0.0007	64
4	417	0.00071	65
4	421	0.00072	66
4	425	0.00073	67
4	429	0.00074	68
4	433	0.00075	69
4	440	0.00075986	68
4	444	0.00076	69
4	469	0.00077	70
4	474	0.00078	71
4	478	0.00079	72
4	482	0.0008	73
4	486	0.00081	74
4	490	0.00082	75
4	494	0.00083	76
4	498	0.00084	77
4	502	0.00085	78
4	506	0.00086	79
4	510	0.00087	80
4	514	0.00088	81
4	521	0.0008829	80
4	525	0.00089	81
4	551	0.0009	82
4	555	0.00091	83
4	559	0.00092	84
4	563	0.00093	85
4	567	0.00094	86
4	571	0.00095	87
4	575	0.00096	88
4	579	0.00097	89
4	583	0.00098	90
4	587	0.00099	91
4	591	0.001	92
4	598	0.00100594	91
4	602	0.00101	92
4	628	0.00102	93
4	632	0.00103	94
4	636	0.00104	95
4	640	0.00105	96
4	644	0.00106	97
4	648	0.00107	98
4	652	0.00108	99
4	656	0.00109	100
4	660	0.0011	101
4	664	0.00111	102
4	668	0.00112	103
4	675	0.00112898	102
4	679	0.00113	103
4	705	0.00114	104
4	709	0.00115	105
4	713	0.00116	106
4	717	0.00117	107
4	721	0.00118	108
4	725	0.00119	109
4	729	0.0012	110
4	733	0.00121	111
4	737	0.00122	112
4	741	0.00123	113
4	745	0.00124	114
4	749	0.00125	115
4	756	0.00125202	114
4	765	0.00126	115
4	786	0.00127	116
4	790	0.00128	117
4	794	0.00129	118
4	798	0.0013	119
4	802	0.00131	120
4	806	0.00132	121
4	810	0.00133	122
4	814	0.00134	123
4	818	0.00135	124
4	822	0.00136	125
4	826	0.00137	126
4	833	0.00137506	125
4	837	0.00138	126
4	863	0.00139	127
4	867	0.0014	128
4	871	0.00141	129
4	875	0.00142	130
4	879	0.00143	131
4	883	0.00144	132
4	887	0.00145	133
4	891	0.00146	134
4	895	0.00147	135
4	899	0.00148	136
4	903	0.00149	137
4	910	0.0014981	136
4	914	0.0015	137
4	940	0.00151	138
4	944	0.00152	139
4	948	0.00153	140
4	952	0.00154	141
4	956	0.00155	142
4	960	0.00156	143
4	964	0.00157	144
4	968	0.00158	145
4	972	0.00159	146
4	976	0.0016	147
4	980	0.00161	148
4	984	0.00162	149
4	991	0.00162114	148
4	1001	0.00163	149
4	1021	0.00164	150
4	1025	0.00165	151
4	1029	0.00166	152
4	1033	0.00167	153
4	1037	0.00168	154
4	1041	0.00169	155
4	1045	0.0017	156
4	1049	0.00171	157
4	1053	0.00172	158
4	1057	0.00173	159
4	1061	0.00174	160
4	1068	0.00174418	159
4	1072	0.00175	160
4	1098	0.00176	161
4	1102	0.00177	162
4	1106	0.00178	163
4	1110	0.00179	164
4	1114	0.0018	165
4	1118	0.00181	166
4	1122	0.00182	167
4	1126	0.00183	168
4	1130	0.00184	169
4	1134	0.00185	170
4	1138	0.00186	171
4	1145	0.00186722	170
4	1149	0.00187	171
4	1175	0.00188	172
4	1179	0.00189	173
4	1183	0.0019	174
4	1187	0.00191	175
4	1191	0.00192	176
4	1195	0.00193	177
4	1199	0.00194	178
4	1203	0.00195	179
4	1207	0.00196	180
4	1211	0.00197	181
4	1215	0.00198	182
4	1225	0.00199	183
4	1226	0.00199026	182
4	1242	0.002	183
4	1256	0.00201	184
4	1260	0.00202	185
4	1264	0.00203	186
4	1268	0.00204	187
4	1272	0.00205	188
4	1276	0.00206	189
4	1280	0.00207	190
4	1284	0.00208	191
4	1288	0.00209	192
4	1292	0.0021	193
4	1296	0.00211	194
4	1303	0.0021133	193
4	1307	0.00212	194
4	1333	0.00213	195
4	1337	0.00214	196
4	1341	0.00215	197
4	1345	0.00216	198
4	1349	0.00217	199
4	1353	0.00218	200
4	1357	0.00219	201
4	1361	0.0022	202
4	1365	0.00221	203
4	1369	0.00222	204
4	1373	0.00223	205
4	1380	0.00223634	204
4	1384	0.00224	205
4	1410	0.00225	206
4	1414	0.00226	207
4	1418	0.00227	208
4	1422	0.00228	209
4	1426	0.00229	210
4	1430	0.0023	211
4	1434	0.00231	212
4	1438	0.00232	213
4	1442	0.00233	214
4	1446	0.00234	215
4	1450	0.00235	216
4	1457	0.00235938	215
4	1461	0.00236	216
4	1486	0.00237	217
4	1491	0.00238	218
4	1495	0.00239	219
4	1499	0.0024	220
4	1503	0.00241	221
4	1507	0.00242	222
4	1511	0.00243	223
4	1515	0.00244	224
4	1519	0.00245	225
4	1523	0.00246	226
4	1527	0.00247	227
4	1531	0.00248	228
4	1538	0.00248242	227
4	1542	0.00249	228
4	1568	0.0025	229
4	1572	0.00251	230
4	1576	0.00252	231
4	1580	0.00253	232
4	1584	0.00254	233
4	1588	0.00255	234
4	1592	0.00256	235
4	1596	0.00257	236
4	1600	0.00258	237
4	1604	0.00259	238
4	1608	0.0026	239
4	1615	0.00260546	238
4	1619	0.00261	239
4	1645	0.00262	240
4	1649	0.00263	241
4	1653	0.00264	242
4	1657	0.00265	243
4	1661	0.00266	244
4	1665	0.00267	245
4	1669	0.00268	246
4	1673	0.00269	247
4	1677	0.0027	248
4	1681	0.00271	249
4	1685	0.00272	250
4	1692	0.0027285	249
4	1696	0.00273	250
4	1722	0.00274	251
4	1726	0.00275	252
4	1730	0.00276	253
4	1734	0.00277	254
4	1738	0.00278	255
4	1742	0.00279	256
4	1746	0.0028	257
4	1750	0.00281	258
4	1754	0.00282	259
4	1758	0.00283	260
4	1762	0.00284	261
4	1766	0.00285	262
4	1773	0.00285154	261
4	1782	0.00286	262
4	1803	0.00287	263
4	1807	0.00288	264
4	1811	0.00289	265
4	1815	0.0029	266
4	1819	0.00291	267
4	1823	0.00292	268
4	1827	0.00293	269
4	1831	0.00294	270
4	1835	0.00295	271
4	1839	0.00296	272
4	1843	0.00297	273
4	1850	0.00297458	272
4	1854	0.00298	273
4	1880	0.00299	274
4	1884	0.003	275
4	1888	0.00301	276
4	1892	0.00302	277
4	1896	0.00303	278
4	1900	0.00304	279
4	1904	0.00305	280
4	1908	0.00306	281
4	1912	0.00307	282
4	1916	0.00308	283
4	1920	0.00309	284
4	1927	0.00309762	283
4	1931	0.0031	284
4	1957	0.00311	285
4	1961	0.00312	286
4	1965	0.00313	287
4	1969	0.00314	288
4	1973	0.00315	289
4	1977	0.00316	290
4	1981	0.00317	291
4	1985	0.00318	292
4	1989	0.00319	293
4	1993	0.0032	294
4	1997	0.00321	295
4	2007	0.00322	296
4	2008	0.00322066	295
4	2024	0.00323	296
4	2038	0.00324	297
4	2042	0.00325	298
4	2046	0.00326	299
4	2050	0.00327	300
4	2054	0.00328	301
4	2058	0.00329	302
4	2062	0.0033	303
4	2066	0.00331	304
4	2070	0.00332	305
4	2074	0.00333	306
4	2078	0.00334	307
4	2085	0.0033437	306
4	2089	0.00335	307
4	2115	0.00336	308
4	2119	0.00337	309
4	2123	0.00338	310
4	2127	0.00339	311
4	2131	0.0034	312
4	2135	0.00341	313
4	2139	0.00342	314
4	2143	0.00343	315
4	2147	0.00344	316
4	2151	0.00345	317
4	2155	0.00346	318
4	2162	0.00346674	317
4	2166	0.00347	318
4	2192	0.00348	319
4	2196	0.00349	320
4	2200	0.0035	321
4	2204	0.00351	322
4	2208	0.00352	323
4	2212	0.00353	324
4	2216	0.00354	325
4	2220	0.00355	326
4	2224	0.00356	327
4	2228	0.00357	328
4	2232	0.00358	329
4	2239	0.00358978	328
4	2243	0.00359	329
4	2268	0.0036	330
4	2273	0.00361	331
4	2277	0.00362	332
4	2281	0.00363	333
4	2285	0.00364	334
4	2289	0.00365	335
4	2293	0.00366	336
4	2297	0.00367	337
4	2301	0.00368	338
4	2305	0.00369	339
4	2309	0.0037	340
4	2313	0.00371	341
4	2320	0.00371282	340
4	2324	0.00372	341
5	5	0.00001	64
5	21	0.00002162	1518
5	78	0.00014466	1518
5	147	0.0002677	1518
5	215	0.00039074	1518
5	286	0.00051378	1518
5	363	0.00063682	1518
5	440	0.00075986	1518
5	521	0.0008829	1518
5	598	0.00100594	1518
5	675	0.00112898	1518
5	756	0.00125202	1518
5	833	0.00137506	1518
5	910	0.0014981	1518
5	991	0.00162114	1518
5	1068	0.00174418	1518
5	1145	0.00186722	1518
5	1226	0.00199026	1518
5	1303	0.0021133	1518
5	1380	0.00223634	1518
5	1457	0.00235938	1518
5	1538	0.00248242	1518
5	1615	0.00260546	1518
5	1692	0.0027285	1518
5	1773	0.00285154	1518
5	1850	0.00297458	1518
5	1927	0.00309762	1518
5	2008	0.00322066	1518
5	2085	0.0033437	1518
5	2162	0.00346674	1518
5	2239	0.00358978	1518
5	2320	0.00371282	1518
6	5	0.00001	0
6	21	0.00002162	0
6	78	0.00014466	0.00012304
6	147	0.0002677	0.0002377
6	215	0.00039074	0.00035074
6	286	0.00051378	0.00046378
6	363	0.00063682	0.00057682
6	440	0.00075986	0.00068986
6	521	0.0008829	0.0008029
6	598	0.00100594	0.00091594
6	675	0.00112898	0.00102898
6	756	0.00125202	0.00114202
6	833	0.00137506	0.00125506
6	910	0.0014981	0.0013681
6	991	0.00162114	0.00148114
6	1068	0.00174418	0.00159418
6	1145	0.00186722	0.00170722
6	1226	0.00199026	0.00182026
6	1303	0.0021133	0.0019333
6	1380	0.00223634	0.00204634
6	1457	0.00235938	0.00215938
6	1538	0.00248242	0.00227242
6	1615	0.00260546	0.00238546
6	1692	0.0027285	0.0024985
6	1773	0.00285154	0.00261154
6	1850	0.00297458	0.00272458
6	1927	0.00309762	0.00283762
6	2008	0.00322066	0.00295066
6	2085	0.0033437	0.0030637
6	2162	0.00346674	0.00317674
6	2239	0.00358978	0.00328978
6	2320	0.00371282	0.00340282
7	6	0.00001576	64
7	72	0.0001437	1518
7	141	0.00026674	1518
7	205	0.00038978	1518
7	280	0.00051282	1518
7	357	0.00063586	1518
7	434	0.0007589	1518
7	515	0.00088194	1518
7	592	0.00100498	1518
7	669	0.00112802	1518
7	750	0.00125106	1518
7	827	0.0013741	1518
7	904	0.00149714	1518
7	985	0.00162018	1518
7	1062	0.00174322	1518
7	1139	0.00186626	1518
7	1216	0.0019893	1518
7	1297	0.00211234	1518
7	1374	0.00223538	1518
7	1451	0.00235842	1518
7	1532	0.00248146	1518
7	1609	0.0026045	1518
7	1686	0.00272754	1518
7	1767	0.00285058	1518
7	1844	0.00297362	1518
7	1921	0.00309666	1518
7	1998	0.0032197	1518
7	2079	0.00334274	1518
7	2156	0.00346578	1518
7	2233	0.00358882	1518
7	2314	0.00371186	1518
8	7	0.00001581	64
8	73	0.00014375	1518
8	142	0.00026679	1518
8	206	0.00038983	1518
8	281	0.00051287	1518
8	358	0.00063591	1518
8	435	0.00075895	1518
8	516	0.00088199	1518
8	593	0.00100503	1518
8	670	0.00112807	1518
8	751	0.00125111	1518
8	828	0.00137415	1518
8	905	0.00149719	1518
8	986	0.00162023	1518
8	1063	0.00174327	1518
8	1140	0.00186631	1518
8	1217	0.00198935	1518
8	1298	0.00211239	1518
8	1375	0.00223543	1518
8	1452	0.00235847	1518
8	1533	0.00248151	1518
8	1610	0.00260455	1518
8	1687	0.00272759	1518
8	1768	0.00285063	1518
8	1845	0.00297367	1518
8	1922	0.00309671	1518
8	1999	0.00321975	1518
8	2080	0.00334279	1518
8	2157	0.00346583	1518
8	2234	0.00358887	1518
8	2315	0.00371191	1518
9	7	0.00001581	64
9	73	0.00014375	1518
9	142	0.00026679	1518
9	206	0.00038983	1518
9	281	0.00051287	1518
9	358	0.00063591	1518
9	435	0.00075895	1518
9	516	0.00088199	1518
9	593	0.00100503	1518
9	670	0.00112807	1518
9	751	0.00125111	1518
9	828	0.00137415	1518
9	905	0.00149719	1518
9	986	0.00162023	1518
9	1063	0.00174327	1518
9	1140	0.00186631	1518
9	1217	0.00198935	1518
9	1298	0.00211239	1518
9	1375	0.00223543	1518
9	1452	0.00235847	1518
9	1533	0.00248151	1518
9	1610	0.00260455	1518
9	1687	0.00272759	1518
9	1768	0.00285063	1518
9	1845	0.00297367	1518
9	1922	0.00309671	1518
9	1999	0.00321975	1518
9	2080	0.00334279	1518
9	2157	0.00346583	1518
9	2234	0.00358887	1518
9	2315	0.00371191	1518
10	8	0.00001581	46
10	74	0.00014375	1500
10	143	0.00026679	1500
10	207	0.00038983	1500
10	282	0.00051287	1500
10	359	0.00063591	1500
10	436	0.00075895	1500
10	517	0.00088199	1500
10	594	0.00100503	1500
10	671	0.00112807	1500
10	752	0.00125111	1500
10	829	0.00137415	1500
10	906	0.00149719	1500
10	987	0.00162023	1500
10	1064	0.00174327	1500
10	1141	0.00186631	1500
10	1218	0.00198935	1500
10	1299	0.00211239	1500
10	1376	0.00223543	1500
10	1453	0.00235847	1500
10	1534	0.00248151	1500
10	1611	0.00260455	1500
10	1688	0.00272759	1500
10	1769	0.00285063	1500
10	1846	0.00297367	1500
10	1923	0.00309671	1500
10	2000	0.00321975	1500
10	2081	0.00334279	1500
10	2158	0.00346583	1500
10	2235	0.00358887	1500
10	2316	0.00371191	1500
11	9	0.00001581	28
12	10	0.00001581	28
12	220	0.00039963	1500
12	301	0.00052267	1500
12	378	0.00064571	1500
12	455	0.00076875	1500
12	536	0.00089179	1500
12	613	0.00101483	1500
12	690	0.00113787	1500
12	771	0.00126091	1500
12	848	0.00138395	1500
12	925	0.00150699	1500
12	1006	0.00163003	1500
12	1083	0.00175307	1500
12	1160	0.00187611	1500
12	1237	0.00199915	1500
12	1318	0.00212219	1500
12	1395	0.00224523	1500
12	1472	0.00236827	1500
12	1553	0.00249131	1500
12	1630	0.00261435	1500
12	1707	0.00273739	1500
12	1788	0.00286043	1500
12	1865	0.00298347	1500
12	1942	0.00310651	1500
12	2019	0.00322955	1500
12	2100	0.00335259	1500
12	2177	0.00347563	1500
12	2254	0.00359867	1500
13	11	0.00001581	46
13	221	0.00039963	1518
13	302	0.00052267	1518
13	379	0.00064571	1518
13	456	0.00076875	1518
13	537	0.00089179	1518
13	614	0.00101483	1518
13	691	0.00113787	1518
13	772	0.00126091	1518
13	849	0.00138395	1518
13	926	0.00150699	1518
13	1007	0.00163003	1518
13	1084	0.00175307	1518
13	1161	0.00187611	1518
13	1238	0.00199915	1518
13	1319	0.00212219	1518
13	1396	0.00224523	1518
13	1473	0.00236827	1518
13	1554	0.00249131	1518
13	1631	0.00261435	1518
13	1708	0.00273739	1518
13	1789	0.00286043	1518
13	1866	0.00298347	1518
13	1943	0.00310651	1518
13	2020	0.00322955	1518
13	2101	0.00335259	1518
13	2178	0.00347563	1518
13	2255	0.00359867	1518
14	11	0.00001581	64
14	221	0.00039963	1518
14	302	0.00052267	1518
14	379	0.00064571	1518
14	456	0.00076875	1518
14	537	0.00089179	1518
14	614	0.00101483	1518
14	691	0.00113787	1518
14	772	0.00126091	1518
14	849	0.00138395	1518
14	926	0.00150699	1518
14	1007	0.00163003	1518
14	1084	0.00175307	1518
14	1161	0.00187611	1518
14	1238	0.00199915	1518
14	1319	0.00212219	1518
14	1396	0.00224523	1518
14	1473	0.00236827	1518
14	1554	0.00249131	1518
14	1631	0.00261435	1518
14	1708	0.00273739	1518
14	1789	0.00286043	1518
14	1866	0.00298347	1518
14	1943	0.00310651	1518
14	2020	0.00322955	1518
14	2101	0.00335259	1518
14	2178	0.00347563	1518
14	2255	0.00359867	1518
15	11	0.00001581	1
15	11	0.00001581	0
15	221	0.00039963	1
15	221	0.00039963	0
15	302	0.00052267	1
15	302	0.00052267	0
15	379	0.00064571	1
15	379	0.00064571	0
15	456	0.00076875	1
15	456	0.00076875	0
15	537	0.00089179	1
15	537	0.00089179	0
15	614	0.00101483	1
15	614	0.00101483	0
15	691	0.00113787	1
15	691	0.00113787	0
15	772	0.00126091	1
15	772	0.00126091	0
15	849	0.00138395	1
15	849	0.00138395	0
15	926	0.00150699	1
15	926	0.00150699	0
15	1007	0.00163003	1
15	1007	0.00163003	0
15	1084	0.00175307	1
15	1084	0.00175307	0
15	1161	0.00187611	1
15	1161	0.00187611	0
15	1238	0.00199915	1
15	1238	0.00199915	0
15	1319	0.00212219	1
15	1319	0.00212219	0
15	1396	0.00224523	1
15	1396	0.00224523	0
15	1473	0.00236827	1
15	1473	0.00236827	0
15	1554	0.00249131	1
15	1554	0.00249131	0
15	1631	0.00261435	1
15	1631	0.00261435	0
15	1708	0.00273739	1
15	1708	0.00273739	0
15	1789	0.00286043	1
15	1789	0.00286043	0
15	1866	0.00298347	1
15	1866	0.00298347	0
15	1943	0.00310651	1
15	1943	0.00310651	0
15	2020	0.00322955	1
15	2020	0.00322955	0
15	2101	0.00335259	1
15	2101	0.00335259	0
15	2178	0.00347563	1
15	2178	0.00347563	0
15	2255	0.00359867	1
15	2255	0.00359867	0
16	11	0.00001581	64
16	221	0.00039963	1518
16	302	0.00052267	1518
16	379	0.00064571	1518
16	456	0.00076875	1518
16	537	0.00089179	1518
16	614	0.00101483	1518
16	691	0.00113787	1518
16	772	0.00126091	1518
16	849	0.00138395	1518
16	926	0.00150699	1518
16	1007	0.00163003	1518
16	1084	0.00175307	1518
16	1161	0.00187611	1518
16	1238	0.00199915	1518
16	1319	0.00212219	1518
16	1396	0.00224523	1518
16	1473	0.00236827	1518
16	1554	0.00249131	1518
16	1631	0.00261435	1518
16	1708	0.00273739	1518
16	1789	0.00286043	1518
16	1866	0.00298347	1518
16	1943	0.00310651	1518
16	2020	0.00322955	1518
16	2101	0.00335259	1518
16	2178	0.00347563	1518
16	2255	0.00359867	1518
17	11	0.00001581	0
17	221	0.00039963	0
17	302	0.00052267	0
17	379	0.00064571	0
17	456	0.00076875	0
17	537	0.00089179	0
17	614	0.00101483	0
17	691	0.00113787	0
17	772	0.00126091	0
17	849	0.00138395	0
17	926	0.00150699	0
17	1007	0.00163003	0
17	1084	0.00175307	0
17	1161	0.00187611	0
17	1238	0.00199915	0
17	1319	0.00212219	0
17	1396	0.00224523	0
17	1473	0.00236827	0
17	1554	0.00249131	0
17	1631	0.00261435	0
17	1708	0.00273739	0
17	1789	0.00286043	0
17	1866	0.00298347	0
17	1943	0.00310651	0
17	2020	0.00322955	0
17	2101	0.00335259	0
17	2178	0.00347563	0
17	2255	0.00359867	0
18	15	0.00002157	64
18	291	0.00052171	1518
18	368	0.00064475	1518
18	445	0.00076779	1518
18	526	0.00089083	1518
18	603	0.00101387	1518
18	680	0.00113691	1518
18	757	0.00125995	1518
18	838	0.00138299	1518
18	915	0.00150603	1518
18	992	0.00162907	1518
18	1073	0.00175211	1518
18	1150	0.00187515	1518
18	1227	0.00199819	1518
18	1308	0.00212123	1518
18	1385	0.00224427	1518
18	1462	0.00236731	1518
18	1543	0.00249035	1518
18	1620	0.00261339	1518
18	1697	0.00273643	1518
18	1774	0.00285947	1518
18	1855	0.00298251	1518
18	1932	0.00310555	1518
18	2009	0.00322859	1518
18	2090	0.00335163	1518
18	2167	0.00347467	1518
18	2244	0.00359771	1518
18	2325	0.00372075	1518
19	16	0.00002162	64
19	292	0.00052176	1518
19	369	0.0006448	1518
19	446	0.00076784	1518
19	527	0.00089088	1518
19	604	0.00101392	1518
19	681	0.00113696	1518
19	758	0.00126	1518
19	839	0.00138304	1518
19	916	0.00150608	1518
19	993	0.00162912	1518
19	1074	0.00175216	1518
19	1151	0.0018752	1518
19	1228	0.00199824	1518
19	1309	0.00212128	1518
19	1386	0.00224432	1518
19	1463	0.00236736	1518
19	1544	0.0024904	1518
19	1621	0.00261344	1518
19	1698	0.00273648	1518
19	1775	0.00285952	1518
19	1856	0.00298256	1518
19	1933	0.0031056	1518
19	2010	0.00322864	1518
19	2091	0.00335168	1518
19	2168	0.00347472	1518
19	2245	0.00359776	1518
19	2326	0.0037208	1518
20	16	0.00002162	64
20	292	0.00052176	1518
20	369	0.0006448	1518
20	446	0.00076784	1518
20	527	0.00089088	1518
20	604	0.00101392	1518
20	681	0.00113696	1518
20	758	0.00126	1518
20	839	0.00138304	1518
20	916	0.00150608	1518
20	993	0.00162912	1518
20	1074	0.00175216	1518
20	1151	0.0018752	1518
20	1228	0.00199824	1518
20	1309	0.00212128	1518
20	1386	0.00224432	1518
20	1463	0.00236736	1518
20	1544	0.0024904	1518
20	1621	0.00261344	1518
20	1698	0.00273648	1518
20	1775	0.00285952	1518
20	1856	0.00298256	1518
20	1933	0.0031056	1518
20	2010	0.00322864	1518
20	2091	0.00335168	1518
20	2168	0.00347472	1518
20	2245	0.00359776	1518
20	2326	0.0037208	1518
21	17	0.00002162	46
21	293	0.00052176	1500
21	370	0.0006448	1500
21	447	0.00076784	1500
21	528	0.00089088	1500
21	605	0.00101392	1500
21	682	0.00113696	1500
21	760	0.00126	1500
21	840	0.00138304	1500
21	917	0.00150608	1500
21	994	0.00162912	1500
21	1075	0.00175216	1500
21	1152	0.0018752	1500
21	1229	0.00199824	1500
21	1310	0.00212128	1500
21	1387	0.00224432	1500
21	1464	0.00236736	1500
21	1545	0.0024904	1500
21	1622	0.00261344	1500
21	1699	0.00273648	1500
21	1776	0.00285952	1500
21	1857	0.00298256	1500
21	1934	0.0031056	1500
21	2011	0.00322864	1500
21	2092	0.00335168	1500
21	2169	0.00347472	1500
21	2246	0.00359776	1500
21	2327	0.0037208	1500
22	75	0.00014375	28
23	76	0.00014375	28
23	94	0.00015537	1500
23	145	0.00026679	1500
23	209	0.00038983	1500
23	284	0.00051287	1500
23	361	0.00063591	1500
23	438	0.00075895	1500
23	519	0.00088199	1500
23	596	0.00100503	1500
23	673	0.00112807	1500
23	754	0.00125111	1500
23	831	0.00137415	1500
23	908	0.00149719	1500
23	989	0.00162023	1500
23	1066	0.00174327	1500
23	1143	0.00186631	1500
23	1220	0.00198935	1500
23	1301	0.00211239	1500
23	1378	0.00223543	1500
23	1455	0.00235847	1500
23	1536	0.00248151	1500
23	1613	0.00260455	1500
23	1690	0.00272759	1500
23	1771	0.00285063	1500
23	1848	0.00297367	1500
23	1925	0.00309671	1500
23	2002	0.00321975	1500
23	2083	0.00334279	1500
23	2160	0.00346583	1500
23	2237	0.00358887	1500
23	2318	0.00371191	1500
24	77	0.00014375	46
24	95	0.00015537	1518
24	146	0.00026679	1518
24	210	0.00038983	1518
24	285	0.00051287	1518
24	362	0.00063591	1518
24	439	0.00075895	1518
24	520	0.00088199	1518
24	597	0.00100503	1518
24	674	0.00112807	1518
24	755	0.00125111	1518
24	832	0.00137415	1518
24	909	0.00149719	1518
24	990	0.00162023	1518
24	1067	0.00174327	1518
24	1144	0.00186631	1518
24	1221	0.00198935	1518
24	1302	0.00211239	1518
24	1379	0.00223543	1518
24	1456	0.00235847	1518
24	1537	0.00248151	1518
24	1614	0.00260455	1518
24	1691	0.00272759	1518
24	1772	0.00285063	1518
24	1849	0.00297367	1518
24	1926	0.00309671	1518
24	2003	0.00321975	1518
24	2084	0.00334279	1518
24	2161	0.00346583	1518
24	2238	0.00358887	1518
24	2319	0.00371191	1518
25	77	0.00014375	64
25	95	0.00015537	1518
25	146	0.00026679	1518
25	210	0.00038983	1518
25	285	0.00051287	1518
25	362	0.00063591	1518
25	439	0.00075895	1518
25	520	0.00088199	1518
25	597	0.00100503	1518
25	674	0.00112807	1518
25	755	0.00125111	1518
25	832	0.00137415	1518
25	909	0.00149719	1518
25	990	0.00162023	1518
25	1067	0.00174327	1518
25	1144	0.00186631	1518
25	1221	0.00198935	1518
25	1302	0.00211239	1518
25	1379	0.00223543	1518
25	1456	0.00235847	1518
25	1537	0.00248151	1518
25	1614	0.00260455	1518
25	1691	0.00272759	1518
25	1772	0.00285063	1518
25	1849	0.00297367	1518
25	1926	0.00309671	1518
25	2003	0.00321975	1518
25	2084	0.00334279	1518
25	2161	0.00346583	1518
25	2238	0.00358887	1518
25	2319	0.00371191	1518
26	77	0.00014375	1
26	77	0.00014375	0
26	95	0.00015537	1
26	95	0.00015537	0
26	146	0.00026679	1
26	160	0.00027841	0
26	210	0.00038983	1
26	235	0.00040145	0
26	285	0.00051287	1
26	312	0.00052449	0
26	362	0.00063591	1
26	389	0.00064753	0
26	439	0.00075895	1
26	470	0.00077057	0
26	520	0.00088199	1
26	547	0.00089361	0
26	597	0.00100503	1
26	624	0.00101665	0
26	674	0.00112807	1
26	701	0.00113969	0
26	755	0.00125111	1
26	782	0.00126273	0
26	832	0.00137415	1
26	859	0.00138577	0
26	909	0.00149719	1
26	936	0.00150881	0
26	990	0.00162023	1
26	1017	0.00163185	0
26	1067	0.00174327	1
26	1094	0.00175489	0
26	1144	0.00186631	1
26	1171	0.00187793	0
26	1221	0.00198935	1
26	1252	0.00200097	0
26	1302	0.00211239	1
26	1329	0.00212401	0
26	1379	0.00223543	1
26	1406	0.00224705	0
26	1456	0.00235847	1
26	1487	0.00237009	0
26	1537	0.00248151	1
26	1564	0.00249313	0
26	1614	0.00260455	1
26	1641	0.00261617	0
26	1691	0.00272759	1
26	1718	0.00273921	0
26	1772	0.00285063	1
26	1799	0.00286225	0
26	1849	0.00297367	1
26	1876	0.00298529	0
26	1926	0.00309671	1
26	1953	0.00310833	0
26	2003	0.00321975	1
26	2034	0.00323137	0
26	2084	0.00334279	1
26	2111	0.00335441	0
26	2161	0.00346583	1
26	2188	0.00347745	0
26	2238	0.00358887	1
26	2269	0.00360049	0
26	2319	0.00371191	1
27	77	0.00014375	64
27	95	0.00015537	1518
27	160	0.00027841	1518
27	235	0.00040145	1518
27	312	0.00052449	1518
27	389	0.00064753	1518
27	470	0.00077057	1518
27	547	0.00089361	1518
27	624	0.00101665	1518
27	701	0.00113969	1518
27	782	0.00126273	1518
27	859	0.00138577	1518
27	936	0.00150881	1518
27	1017	0.00163185	1518
27	1094	0.00175489	1518
27	1171	0.00187793	1518
27	1252	0.00200097	1518
27	1329	0.00212401	1518
27	1406	0.00224705	1518
27	1487	0.00237009	1518
27	1564	0.00249313	1518
27	1641	0.00261617	1518
27	1718	0.00273921	1518
27	1799	0.00286225	1518
27	1876	0.00298529	1518
27	1953	0.00310833	1518
27	2034	0.00323137	1518
27	2111	0.00335441	1518
27	2188	0.00347745	1518
27	2269	0.00360049	1518
28	77	0.00014375	0
28	95	0.00015537	0
28	160	0.00027841	1.162e-005
28	235	0.00040145	1.162e-005
28	312	0.00052449	1.162e-005
28	389	0.00064753	1.162e-005
28	470	0.00077057	1.162e-005
28	547	0.00089361	1.162e-005
28	624	0.00101665	1.162e-005
28	701	0.00113969	1.162e-005
28	782	0.00126273	1.162e-005
28	859	0.00138577	1.162e-005
28	936	0.00150881	1.162e-005
28	1017	0.00163185	1.162e-005
28	1094	0.00175489	1.162e-005
28	1171	0.00187793	1.162e-005
28	1252	0.00200097	1.162e-005
28	1329	0.00212401	1.162e-005
28	1406	0.00224705	1.162e-005
28	1487	0.00237009	1.162e-005
28	1564	0.00249313	1.162e-005
28	1641	0.00261617	1.162e-005
28	1718	0.00273921	1.162e-005
28	1799	0.00286225	1.162e-005
28	1876	0.00298529	1.162e-005
28	1953	0.00310833	1.162e-005
28	2034	0.00323137	1.162e-005
28	2111	0.00335441	1.162e-005
28	2188	0.00347745	1.162e-005
28	2269	0.00360049	1.162e-005
29	79	0.00014951	64
29	152	0.00027745	1518
29	226	0.00040049	1518
29	303	0.00052353	1518
29	380	0.00064657	1518
29	457	0.00076961	1518
29	538	0.00089265	1518
29	615	0.00101569	1518
29	692	0.00113873	1518
29	773	0.00126177	1518
29	850	0.00138481	1518
29	927	0.00150785	1518
29	1008	0.00163089	1518
29	1085	0.00175393	1518
29	1162	0.00187697	1518
29	1243	0.00200001	1518
29	1320	0.00212305	1518
29	1397	0.00224609	1518
29	1474	0.00236913	1518
29	1555	0.00249217	1518
29	1632	0.00261521	1518
29	1709	0.00273825	1518
29	1790	0.00286129	1518
29	1867	0.00298433	1518
29	1944	0.00310737	1518
29	2025	0.00323041	1518
29	2102	0.00335345	1518
29	2179	0.00347649	1518
29	2256	0.00359953	1518
30	80	0.00014956	64
30	153	0.0002775	1518
30	227	0.00040054	1518
30	304	0.00052358	1518
30	381	0.00064662	1518
30	458	0.00076966	1518
30	539	0.0008927	1518
30	616	0.00101574	1518
30	693	0.00113878	1518
30	774	0.00126182	1518
30	851	0.00138486	1518
30	928	0.0015079	1518
30	1009	0.00163094	1518
30	1086	0.00175398	1518
30	1163	0.00187702	1518
30	1244	0.00200006	1518
30	1321	0.0021231	1518
30	1398	0.00224614	1518
30	1475	0.00236918	1518
30	1556	0.00249222	1518
30	1633	0.00261526	1518
30	1710	0.0027383	1518
30	1791	0.00286134	1518
30	1868	0.00298438	1518
30	1945	0.00310742	1518
30	2026	0.00323046	1518
30	2103	0.0033535	1518
30	2180	0.00347654	1518
30	2257	0.00359958	1518
31	80	0.00014956	64
31	153	0.0002775	1518
31	227	0.00040054	1518
31	304	0.00052358	1518
31	381	0.00064662	1518
31	458	0.00076966	1518
31	539	0.0008927	1518
31	616	0.00101574	1518
31	693	0.00113878	1518
31	774	0.00126182	1518
31	851	0.00138486	1518
31	928	0.0015079	1518
31	1009	0.00163094	1518
31	1086	0.00175398	1518
31	1163	0.00187702	1518
31	1244	0.00200006	1518
31	1321	0.0021231	1518
31	1398	0.00224614	1518
31	1475	0.00236918	1518
31	1556	0.00249222	1518
31	1633	0.00261526	1518
31	1710	0.0027383	1518
31	1791	0.00286134	1518
31	1868	0.00298438	1518
31	1945	0.00310742	1518
31	2026	0.00323046	1518
31	2103	0.0033535	1518
31	2180	0.00347654	1518
31	2257	0.00359958	1518
32	81	0.00014956	46
32	154	0.0002775	1500
32	229	0.00040054	1500
32	306	0.00052358	1500
32	383	0.00064662	1500
32	460	0.00076966	1500
32	541	0.0008927	1500
32	618	0.00101574	1500
32	695	0.00113878	1500
32	776	0.00126182	1500
32	853	0.00138486	1500
32	930	0.0015079	1500
32	1011	0.00163094	1500
32	1088	0.00175398	1500
32	1165	0.00187702	1500
32	1246	0.00200006	1500
32	1323	0.0021231	1500
32	1400	0.00224614	1500
32	1477	0.00236918	1500
32	1558	0.00249222	1500
32	1635	0.00261526	1500
32	1712	0.0027383	1500
32	1793	0.00286134	1500
32	1870	0.00298438	1500
32	1947	0.00310742	1500
32	2028	0.00323046	1500
32	2105	0.0033535	1500
32	2182	0.00347654	1500
32	2259	0.00359958	1500
33	82	0.00014956	28
34	83	0.00014956	28
34	158	0.0002775	1500
34	233	0.00040054	1500
34	310	0.00052358	1500
34	387	0.00064662	1500
34	464	0.00076966	1500
34	545	0.0008927	1500
34	622	0.00101574	1500
34	699	0.00113878	1500
34	780	0.00126182	1500
34	857	0.00138486	1500
34	934	0.0015079	1500
34	1015	0.00163094	1500
34	1092	0.00175398	1500
34	1169	0.00187702	1500
34	1250	0.00200006	1500
34	1327	0.0021231	1500
34	1404	0.00224614	1500
34	1481	0.00236918	1500
34	1562	0.00249222	1500
34	1639	0.00261526	1500
34	1716	0.0027383	1500
34	1797	0.00286134	1500
34	1874	0.00298438	1500
34	1951	0.00310742	1500
34	2032	0.00323046	1500
34	2109	0.0033535	1500
34	2186	0.00347654	1500
34	2263	0.00359958	1500
35	84	0.00014956	46
35	159	0.0002775	1518
35	234	0.00040054	1518
35	311	0.00052358	1518
35	388	0.00064662	1518
35	465	0.00076966	1518
35	546	0.0008927	1518
35	623	0.00101574	1518
35	700	0.00113878	1518
35	781	0.00126182	1518
35	858	0.00138486	1518
35	935	0.0015079	1518
35	1016	0.00163094	1518
35	1093	0.00175398	1518
35	1170	0.00187702	1518
35	1251	0.00200006	1518
35	1328	0.0021231	1518
35	1405	0.00224614	1518
35	1482	0.00236918	1518
35	1563	0.00249222	1518
35	1640	0.00261526	1518
35	1717	0.0027383	1518
35	1798	0.00286134	1518
35	1875	0.00298438	1518
35	1952	0.00310742	1518
35	2033	0.00323046	1518
35	2110	0.0033535	1518
35	2187	0.00347654	1518
35	2264	0.00359958	1518
36	84	0.00014956	64
36	159	0.0002775	1518
36	234	0.00040054	1518
36	311	0.00052358	1518
36	388	0.00064662	1518
36	465	0.00076966	1518
36	546	0.0008927	1518
36	623	0.00101574	1518
36	700	0.00113878	1518
36	781	0.00126182	1518
36	858	0.00138486	1518
36	935	0.0015079	1518
36	1016	0.00163094	1518
36	1093	0.00175398	1518
36	1170	0.00187702	1518
36	1251	0.00200006	1518
36	1328	0.0021231	1518
36	1405	0.00224614	1518
36	1482	0.00236918	1518
36	1563	0.00249222	1518
36	1640	0.00261526	1518
36	1717	0.0027383	1518
36	1798	0.00286134	1518
36	1875	0.00298438	1518
36	1952	0.00310742	1518
36	2033	0.00323046	1518
36	2110	0.0033535	1518
36	2187	0.00347654	1518
36	2264	0.00359958	1518
37	84	0.00014956	1
37	84	0.00014956	0
37	159	0.0002775	1
37	159	0.0002775	0
37	234	0.00040054	1
37	234	0.00040054	0
37	311	0.00052358	1
37	311	0.00052358	0
37	388	0.00064662	1
37	388	0.00064662	0
37	465	0.00076966	1
37	465	0.00076966	0
37	546	0.0008927	1
37	546	0.0008927	0
37	623	0.00101574	1
37	623	0.00101574	0
37	700	0.00113878	1
37	700	0.00113878	0
37	781	0.00126182	1
37	781	0.00126182	0
37	858	0.00138486	1
37	858	0.00138486	0
37	935	0.0015079	1
37	935	0.0015079	0
37	1016	0.00163094	1
37	1016	0.00163094	0
37	1093	0.00175398	1
37	1093	0.00175398	0
37	1170	0.00187702	1
37	1170	0.00187702	0
37	1251	0.00200006	1
37	1251	0.00200006	0
37	1328	0.0021231	1
37	1328	0.0021231	0
37	1405	0.00224614	1
37	1405	0.00224614	0
37	1482	0.00236918	1
37	1482	0.00236918	0
37	1563	0.00249222	1
37	1563	0.00249222	0
37	1640	0.00261526	1
37	1640	0.00261526	0
37	1717	0.0027383	1
37	1717	0.0027383	0
37	1798	0.00286134	1
37	1798	0.00286134	0
37	1875	0.00298438	1
37	1875	0.00298438	0
37	1952	0.00310742	1
37	1952	0.00310742	0
37	2033	0.00323046	1
37	2033	0.00323046	0
37	2110	0.0033535	1
37	2110	0.0033535	0
37	2187	0.00347654	1
37	2187	0.00347654	0
37	2264	0.00359958	1
37	2264	0.00359958	0
38	84	0.00014956	64
38	159	0.0002775	1518
38	234	0.00040054	1518
38	311	0.00052358	1518
38	388	0.00064662	1518
38	465	0.00076966	1518
38	546	0.0008927	1518
38	623	0.00101574	1518
38	700	0.00113878	1518
38	781	0.00126182	1518
38	858	0.00138486	1518
38	935	0.0015079	1518
38	1016	0.00163094	1518
38	1093	0.00175398	1518
38	1170	0.00187702	1518
38	1251	0.00200006	1518
38	1328	0.0021231	1518
38	1405	0.00224614	1518
38	1482	0.00236918	1518
38	1563	0.00249222	1518
38	1640	0.00261526	1518
38	1717	0.0027383	1518
38	1798	0.00286134	1518
38	1875	0.00298438	1518
38	1952	0.00310742	1518
38	2033	0.00323046	1518
38	2110	0.0033535	1518
38	2187	0.00347654	1518
38	2264	0.00359958	1518
39	84	0.00014956	0
39	159	0.0002775	0
39	234	0.00040054	0
39	311	0.00052358	0
39	388	0.00064662	0
39	465	0.00076966	0
39	546	0.0008927	0
39	623	0.00101574	0
39	700	0.00113878	0
39	781	0.00126182	0
39	858	0.00138486	0
39	935	0.0015079	0
39	1016	0.00163094	0
39	1093	0.00175398	0
39	1170	0.00187702	0
39	1251	0.00200006	0
39	1328	0.0021231	0
39	1405	0.00224614	0
39	1482	0.00236918	0
39	1563	0.00249222	0
39	1640	0.00261526	0
39	1717	0.0027383	0
39	1798	0.00286134	0
39	1875	0.00298438	0
39	1952	0.00310742	0
39	2033	0.00323046	0
39	2110	0.0033535	0
39	2187	0.00347654	0
39	2264	0.00359958	0
40	90	0.00015532	64
40	216	0.00039958	1518
40	296	0.00052262	1518
40	373	0.00064566	1518
40	450	0.0007687	1518
40	531	0.00089174	1518
40	608	0.00101478	1518
40	685	0.00113782	1518
40	766	0.00126086	1518
40	843	0.0013839	1518
40	920	0.00150694	1518
40	997	0.00162998	1518
40	1078	0.00175302	1518
40	1155	0.00187606	1518
40	1232	0.0019991	1518
40	1313	0.00212214	1518
40	1390	0.00224518	1518
40	1467	0.00236822	1518
40	1548	0.00249126	1518
40	1625	0.0026143	1518
40	1702	0.00273734	1518
40	1783	0.00286038	1518
40	1860	0.00298342	1518
40	1937	0.00310646	1518
40	2014	0.0032295	1518
40	2095	0.00335254	1518
40	2172	0.00347558	1518
40	2249	0.00359862	1518
40	2330	0.00372166	1518
41	91	0.00015537	64
41	217	0.00039963	1518
41	297	0.00052267	1518
41	374	0.00064571	1518
41	451	0.00076875	1518
41	532	0.00089179	1518
41	609	0.00101483	1518
41	686	0.00113787	1518
41	767	0.00126091	1518
41	844	0.00138395	1518
41	921	0.00150699	1518
41	1002	0.00163003	1518
41	1079	0.00175307	1518
41	1156	0.00187611	1518
41	1233	0.00199915	1518
41	1314	0.00212219	1518
41	1391	0.00224523	1518
41	1468	0.00236827	1518
41	1549	0.00249131	1518
41	1626	0.00261435	1518
41	1703	0.00273739	1518
41	1784	0.00286043	1518
41	1861	0.00298347	1518
41	1938	0.00310651	1518
41	2015	0.00322955	1518
41	2096	0.00335259	1518
41	2173	0.00347563	1518
41	2250	0.00359867	1518
42	91	0.00015537	64
42	217	0.00039963	1518
42	297	0.00052267	1518
42	374	0.00064571	1518
42	451	0.00076875	1518
42	532	0.00089179	1518
42	609	0.00101483	1518
42	686	0.00113787	1518
42	767	0.00126091	1518
42	844	0.00138395	1518
42	921	0.00150699	1518
42	1002	0.00163003	1518
42	1079	0.00175307	1518
42	1156	0.00187611	1518
42	1233	0.00199915	1518
42	1314	0.00212219	1518
42	1391	0.00224523	1518
42	1468	0.00236827	1518
42	1549	0.00249131	1518
42	1626	0.00261435	1518
42	1703	0.00273739	1518
42	1784	0.00286043	1518
42	1861	0.00298347	1518
42	1938	0.00310651	1518
42	2015	0.00322955	1518
42	2096	0.00335259	1518
42	2173	0.00347563	1518
42	2250	0.00359867	1518
43	92	0.00015537	46
43	218	0.00039963	1500
43	299	0.00052267	1500
43	376	0.00064571	1500
43	453	0.00076875	1500
43	534	0.00089179	1500
43	611	0.00101483	1500
43	688	0.00113787	1500
43	769	0.00126091	1500
43	846	0.00138395	1500
43	923	0.00150699	1500
43	1004	0.00163003	1500
43	1081	0.00175307	1500
43	1158	0.00187611	1500
43	1235	0.00199915	1500
43	1316	0.00212219	1500
43	1393	0.00224523	1500
43	1470	0.00236827	1500
43	1551	0.00249131	1500
43	1628	0.00261435	1500
43	1705	0.00273739	1500
43	1786	0.00286043	1500
43	1863	0.00298347	1500
43	1940	0.00310651	1500
43	2017	0.00322955	1500
43	2098	0.00335259	1500
43	2175	0.00347563	1500
43	2252	0.00359867	1500
vector 44 TestBot.bot.eth[0].mac.queue packetDropQueueOverflow:vector(packetBytes) ETV
attr interpolationmode none
attr source packetDropReasonIsQueueOverflow(packetDropped)
attr title "packet drops: queue overflow, vector(packetBytes)"
1	2349	0.00373	1500
1	2353	0.00374	1500
1	2357	0.00375	1500
1	2361	0.00376	1500
1	2365	0.00377	1500
1	2369	0.00378	1500
1	2373	0.00379	1500
1	2377	0.0038	1500
1	2381	0.00381	1500
1	2385	0.00382	1500
1	2389	0.00383	1500
1	2400	0.00384	1500
1	2426	0.00385	1500
1	2430	0.00386	1500
1	2434	0.00387	1500
1	2438	0.00388	1500
1	2442	0.00389	1500
1	2446	0.0039	1500
1	2450	0.00391	1500
1	2454	0.00392	1500
1	2458	0.00393	1500
1	2462	0.00394	1500
1	2466	0.00395	1500
1	2477	0.00396	1500
1	2503	0.00397	1500
1	2507	0.00398	1500
1	2511	0.00399	1500
1	2515	0.004	1500
1	2519	0.00401	1500
1	2523	0.00402	1500
1	2527	0.00403	1500
1	2531	0.00404	1500
1	2535	0.00405	1500
1	2539	0.00406	1500
1	2543	0.00407	1500
1	2547	0.00408	1500
1	2563	0.00409	1500
1	2584	0.0041	1500
1	2588	0.00411	1500
1	2592	0.00412	1500
1	2596	0.00413	1500
1	2600	0.00414	1500
1	2604	0.00415	1500
1	2608	0.00416	1500
1	2612	0.00417	1500
1	2616	0.00418	1500
1	2620	0.00419	1500
1	2624	0.0042	1500
1	2635	0.00421	1500
1	2661	0.00422	1500
1	2665	0.00423	1500
1	2669	0.00424	1500
1	2673	0.00425	1500
1	2677	0.00426	1500
1	2681	0.00427	1500
1	2685	0.00428	1500
1	2689	0.00429	1500
1	2693	0.0043	1500
1	2697	0.00431	1500
1	2701	0.00432	1500
1	2712	0.00433	1500
1	2738	0.00434	1500
1	2742	0.00435	1500
1	2746	0.00436	1500
1	2750	0.00437	1500
1	2754	0.00438	1500
1	2758	0.00439	1500
1	2762	0.0044	1500
1	2766	0.00441	1500
1	2770	0.00442	1500
1	2774	0.00443	1500
1	2778	0.00444	1500
1	2782	0.00445	1500
1	2805	0.00446	1500
1	2819	0.00447	1500
1	2823	0.00448	1500
1	2827	0.00449	1500
1	2831	0.0045	1500
1	2835	0.00451	1500
1	2839	0.00452	1500
1	2843	0.00453	1500
1	2847	0.00454	1500
1	2851	0.00455	1500
1	2855	0.00456	1500
1	2859	0.00457	1500
1	2870	0.00458	1500
1	2896	0.00459	1500
1	2900	0.0046	1500
1	2904	0.00461	1500
1	2908	0.00462	1500
1	2912	0.00463	1500
1	2916	0.00464	1500
1	2920	0.00465	1500
1	2924	0.00466	1500
1	2928	0.00467	1500
1	2932	0.00468	1500
1	2936	0.00469	1500
1	2947	0.0047	1500
1	2973	0.00471	1500
1	2977	0.00472	1500
1	2981	0.00473	1500
1	2985	0.00474	1500
1	2989	0.00475	1500
1	2993	0.00476	1500
1	2997	0.00477	1500
1	3001	0.00478	1500
1	3005	0.00479	1500
1	3009	0.0048	1500
1	3013	0.00481	1500
1	3023	0.00482	1500
1	3049	0.00483	1500
1	3054	0.00484	1500
1	3058	0.00485	1500
1	3062	0.00486	1500
1	3066	0.00487	1500
1	3070	0.00488	1500
1	3074	0.00489	1500
1	3078	0.0049	1500
1	3082	0.00491	1500
1	3086	0.00492	1500
1	3090	0.00493	1500
1	3094	0.00494	1500
1	3105	0.00495	1500
1	3131	0.00496	1500
1	3135	0.00497	1500
1	3139	0.00498	1500
1	3143	0.00499	1500
1	3147	0.005	1500
1	3151	0.00501	1500
1	3155	0.00502	1500
1	3159	0.00503	1500
1	3163	0.00504	1500
1	3167	0.00505	1500
1	3171	0.00506	1500
1	3182	0.00507	1500
1	3208	0.00508	1500
1	3212	0.00509	1500
1	3216	0.0051	1500
1	3220	0.00511	1500
1	3224	0.00512	1500
1	3228	0.00513	1500
1	3232	0.00514	1500
1	3236	0.00515	1500
1	3240	0.00516	1500
1	3244	0.00517	1500
1	3248	0.00518	1500
1	3259	0.00519	1500
1	3284	0.0052	1500
1	3289	0.00521	1500
1	3293	0.00522	1500
1	3297	0.00523	1500
1	3301	0.00524	1500
1	3305	0.00525	1500
1	3309	0.00526	1500
1	3313	0.00527	1500
1	3317	0.00528	1500
1	3321	0.00529	1500
1	3325	0.0053	1500
1	3329	0.00531	1500
1	3340	0.00532	1500
1	3366	0.00533	1500
1	3370	0.00534	1500
1	3374	0.00535	1500
1	3378	0.00536	1500
1	3382	0.00537	1500
1	3386	0.00538	1500
1	3390	0.00539	1500
1	3394	0.0054	1500
1	3398	0.00541	1500
1	3402	0.00542	1500
1	3406	0.00543	1500
1	3417	0.00544	1500
1	3443	0.00545	1500
1	3447	0.00546	1500
1	3451	0.00547	1500
1	3455	0.00548	1500
1	3459	0.00549	1500
1	3463	0.0055	1500
1	3467	0.00551	1500
1	3471	0.00552	1500
1	3475	0.00553	1500
1	3479	0.00554	1500
1	3483	0.00555	1500
1	3494	0.00556	1500
1	3520	0.00557	1500
1	3524	0.00558	1500
1	3528	0.00559	1500
1	3532	0.0056	1500
1	3536	0.00561	1500
1	3540	0.00562	1500
1	3544	0.00563	1500
1	3548	0.00564	1500
1	3552	0.00565	1500
1	3556	0.00566	1500
1	3560	0.00567	1500
1	3564	0.00568	1500
1	3580	0.00569	1500
1	3601	0.0057	1500
1	3605	0.00571	1500
1	3609	0.00572	1500
1	3613	0.00573	1500
1	3617	0.00574	1500
1	3621	0.00575	1500
1	3625	0.00576	1500
1	3629	0.00577	1500
1	3633	0.00578	1500
1	3637	0.00579	1500
1	3641	0.0058	1500
1	3652	0.00581	1500
1	3678	0.00582	1500
1	3682	0.00583	1500
1	3686	0.00584	1500
1	3690	0.00585	1500
1	3694	0.00586	1500
1	3698	0.00587	1500
1	3702	0.00588	1500
1	3706	0.00589	1500
1	3710	0.0059	1500
1	3714	0.00591	1500
1	3718	0.00592	1500
1	3729	0.00593	1500
1	3755	0.00594	1500
1	3759	0.00595	1500
1	3763	0.00596	1500
1	3767	0.00597	1500
1	3771	0.00598	1500
1	3775	0.00599	1500
1	3779	0.006	1500
1	3783	0.00601	1500
1	3787	0.00602	1500
1	3791	0.00603	1500
1	3795	0.00604	1500
1	3805	0.00605	1500
1	3822	0.00606	1500
1	3836	0.00607	1500
1	3840	0.00608	1500
1	3844	0.00609	1500
1	3848	0.0061	1500
1	3852	0.00611	1500
1	3856	0.00612	1500
1	3860	0.00613	1500
1	3864	0.00614	1500
1	3868	0.00615	1500
1	3872	0.00616	1500
1	3876	0.00617	1500
1	3887	0.00618	1500
1	3913	0.00619	1500
1	3917	0.0062	1500
1	3921	0.00621	1500
1	3925	0.00622	1500
1	3929	0.00623	1500
1	3933	0.00624	1500
1	3937	0.00625	1500
1	3941	0.00626	1500
1	3945	0.00627	1500
1	3949	0.00628	1500
1	3953	0.00629	1500
1	3964	0.0063	1500
1	3990	0.00631	1500
1	3994	0.00632	1500
1	3998	0.00633	1500
1	4002	0.00634	1500
1	4006	0.00635	1500
1	4010	0.00636	1500
1	4014	0.00637	1500
1	4018	0.00638	1500
1	4022	0.00639	1500
1	4026	0.0064	1500
1	4030	0.00641	1500
1	4041	0.00642	1500
1	4066	0.00643	1500
1	4071	0.00644	1500
1	4075	0.00645	1500
1	4079	0.00646	1500
1	4083	0.00647	1500
1	4087	0.00648	1500
1	4091	0.00649	1500
1	4095	0.0065	1500
1	4099	0.00651	1500
1	4103	0.00652	1500
1	4107	0.00653	1500
1	4111	0.00654	1500
1	4122	0.00655	1500
1	4148	0.00656	1500
1	4152	0.00657	1500
1	4156	0.00658	1500
1	4160	0.00659	1500
1	4164	0.0066	1500
1	4168	0.00661	1500
1	4172	0.00662	1500
1	4176	0.00663	1500
1	4180	0.00664	1500
1	4184	0.00665	1500
1	4188	0.00666	1500
1	4199	0.00667	1500
1	4225	0.00668	1500
1	4229	0.00669	1500
1	4233	0.0067	1500
1	4237	0.00671	1500
1	4241	0.00672	1500
1	4245	0.00673	1500
1	4249	0.00674	1500
1	4253	0.00675	1500
1	4257	0.00676	1500
1	4261	0.00677	1500
1	4265	0.00678	1500
1	4276	0.00679	1500
1	4302	0.0068	1500
1	4306	0.00681	1500
1	4310	0.00682	1500
1	4314	0.00683	1500
1	4318	0.00684	1500
1	4322	0.00685	1500
1	4326	0.00686	1500
1	4330	0.00687	1500
1	4334	0.00688	1500
1	4338	0.00689	1500
1	4342	0.0069	1500
1	4346	0.00691	1500
1	4362	0.00692	1500
1	4383	0.00693	1500
1	4387	0.00694	1500
1	4391	0.00695	1500
1	4395	0.00696	1500
1	4399	0.00697	1500
1	4403	0.00698	1500
1	4407	0.00699	1500
1	4411	0.007	1500
1	4415	0.00701	1500
1	4419	0.00702	1500
1	4423	0.00703	1500
1	4434	0.00704	1500
1	4460	0.00705	1500
1	4464	0.00706	1500
1	4468	0.00707	1500
1	4472	0.00708	1500
1	4476	0.00709	1500
1	4480	0.0071	1500
1	4484	0.00711	1500
1	4488	0.00712	1500
1	4492	0.00713	1500
1	4496	0.00714	1500
1	4500	0.00715	1500
1	4511	0.00716	1500
1	4537	0.00717	1500
1	4541	0.00718	1500
1	4545	0.00719	1500
1	4549	0.0072	1500
1	4553	0.00721	1500
1	4557	0.00722	1500
1	4561	0.00723	1500
1	4565	0.00724	1500
1	4569	0.00725	1500
1	4573	0.00726	1500
1	4577	0.00727	1500
1	4581	0.00728	1500
1	4604	0.00729	1500
1	4618	0.0073	1500
1	4622	0.00731	1500
1	4626	0.00732	1500
1	4630	0.00733	1500
1	4634	0.00734	1500
1	4638	0.00735	1500
1	4642	0.00736	1500
1	4646	0.00737	1500
1	4650	0.00738	1500
1	4654	0.00739	1500
1	4658	0.0074	1500
1	4669	0.00741	1500
1	4695	0.00742	1500
1	4699	0.00743	1500
1	4703	0.00744	1500
1	4707	0.00745	1500
1	4711	0.00746	1500
1	4715	0.00747	1500
1	4719	0.00748	1500
1	4723	0.00749	1500
1	4727	0.0075	1500
1	4731	0.00751	1500
1	4735	0.00752	1500
1	4746	0.00753	1500
1	4772	0.00754	1500
1	4776	0.00755	1500
1	4780	0.00756	1500
1	4784	0.00757	1500
1	4788	0.00758	1500
1	4792	0.00759	1500
1	4796	0.0076	1500
1	4800	0.00761	1500
1	4804	0.00762	1500
1	4808	0.00763	1500
1	4812	0.00764	1500
1	4822	0.00765	1500
1	4848	0.00766	1500
1	4853	0.00767	1500
1	4857	0.00768	1500
1	4861	0.00769	1500
1	4865	0.0077	1500
1	4869	0.00771	1500
1	4873	0.00772	1500
1	4877	0.00773	1500
1	4881	0.00774	1500
1	4885	0.00775	1500
1	4889	0.00776	1500
1	4893	0.00777	1500
1	4904	0.00778	1500
1	4930	0.00779	1500
1	4934	0.0078	1500
1	4938	0.00781	1500
1	4942	0.00782	1500
1	4946	0.00783	1500
1	4950	0.00784	1500
1	4954	0.00785	1500
1	4958	0.00786	1500
1	4962	0.00787	1500
1	4966	0.00788	1500
1	4970	0.00789	1500
1	4981	0.0079	1500
1	5007	0.00791	1500
1	5011	0.00792	1500
1	5015	0.00793	1500
1	5019	0.00794	1500
1	5023	0.00795	1500
1	5027	0.00796	1500
1	5031	0.00797	1500
1	5035	0.00798	1500
1	5039	0.00799	1500
1	5043	0.008	1500
1	5047	0.00801	1500
1	5058	0.00802	1500
1	5084	0.00803	1500
1	5088	0.00804	1500
1	5092	0.00805	1500
1	5096	0.00806	1500
1	5100	0.00807	1500
1	5104	0.00808	1500
1	5108	0.00809	1500
1	5112	0.0081	1500
1	5116	0.00811	1500
1	5120	0.00812	1500
1	5124	0.00813	1500
1	5128	0.00814	1500
1	5139	0.00815	1500
1	5165	0.00816	1500
1	5169	0.00817	1500
1	5173	0.00818	1500
1	5177	0.00819	1500
1	5181	0.0082	1500
1	5185	0.00821	1500
1	5189	0.00822	1500
1	5193	0.00823	1500
1	5197	0.00824	1500
1	5201	0.00825	1500
1	5205	0.00826	1500
1	5216	0.00827	1500
1	5242	0.00828	1500
1	5246	0.00829	1500
1	5250	0.0083	1500
1	5254	0.00831	1500
1	5258	0.00832	1500
1	5262	0.00833	1500
1	5266	0.00834	1500
1	5270	0.00835	1500
1	5274	0.00836	1500
1	5278	0.00837	1500
1	5282	0.00838	1500
1	5293	0.00839	1500
1	5319	0.0084	1500
1	5323	0.00841	1500
1	5327	0.00842	1500
1	5331	0.00843	1500
1	5335	0.00844	1500
1	5339	0.00845	1500
1	5343	0.00846	1500
1	5347	0.00847	1500
1	5351	0.00848	1500
1	5355	0.00849	1500
1	5359	0.0085	1500
1	5363	0.00851	1500
1	5379	0.00852	1500
1	5400	0.00853	1500
1	5404	0.00854	1500
1	5408	0.00855	1500
1	5412	0.00856	1500
1	5416	0.00857	1500
1	5420	0.00858	1500
1	5424	0.00859	1500
1	5428	0.0086	1500
1	5432	0.00861	1500
1	5436	0.00862	1500
1	5440	0.00863	1500
1	5451	0.00864	1500
1	5477	0.00865	1500
1	5481	0.00866	1500
1	5485	0.00867	1500
1	5489	0.00868	1500
1	5493	0.00869	1500
1	5497	0.0087	1500
1	5501	0.00871	1500
1	5505	0.00872	1500
1	5509	0.00873	1500
1	5513	0.00874	1500
1	5517	0.00875	1500
1	5528	0.00876	1500
1	5554	0.00877	1500
1	5558	0.00878	1500
1	5562	0.00879	1500
1	5566	0.0088	1500
1	5570	0.00881	1500
1	5574	0.00882	1500
1	5578	0.00883	1500
1	5582	0.00884	1500
1	5586	0.00885	1500
1	5590	0.00886	1500
1	5594	0.00887	1500
1	5604	0.00888	1500
1	5621	0.00889	1500
1	5635	0.0089	1500
1	5639	0.00891	1500
1	5643	0.00892	1500
1	5647	0.00893	1500
1	5651	0.00894	1500
1	5655	0.00895	1500
1	5659	0.00896	1500
1	5663	0.00897	1500
1	5667	0.00898	1500
1	5671	0.00899	1500
1	5675	0.009	1500
1	5686	0.00901	1500
1	5712	0.00902	1500
1	5716	0.00903	1500
1	5720	0.00904	1500
1	5724	0.00905	1500
1	5728	0.00906	1500
1	5732	0.00907	1500
1	5736	0.00908	1500
1	5740	0.00909	1500
1	5744	0.0091	1500
1	5748	0.00911	1500
1	5752	0.00912	1500
1	5763	0.00913	1500
1	5789	0.00914	1500
1	5793	0.00915	1500
1	5797	0.00916	1500
1	5801	0.00917	1500
1	5805	0.00918	1500
1	5809	0.00919	1500
1	5813	0.0092	1500
1	5817	0.00921	1500
1	5821	0.00922	1500
1	5825	0.00923	1500
1	5829	0.00924	1500
1	5840	0.00925	1500
1	5865	0.00926	1500
1	5870	0.00927	1500
1	5874	0.00928	1500
1	5878	0.00929	1500
1	5882	0.0093	1500
1	5886	0.00931	1500
1	5890	0.00932	1500
1	5894	0.00933	1500
1	5898	0.00934	1500
1	5902	0.00935	1500
1	5906	0.00936	1500
1	5910	0.00937	1500
1	5921	0.00938	1500
1	5947	0.00939	1500
1	5951	0.0094	1500
1	5955	0.00941	1500
1	5959	0.00942	1500
1	5963	0.00943	1500
1	5967	0.00944	1500
1	5971	0.00945	1500
1	5975	0.00946	1500
1	5979	0.00947	1500
1	5983	0.00948	1500
1	5987	0.00949	1500
1	5998	0.0095	1500
1	6024	0.00951	1500
1	6028	0.00952	1500
1	6032	0.00953	1500
1	6036	0.00954	1500
1	6040	0.00955	1500
1	6044	0.00956	1500
1	6048	0.00957	1500
1	6052	0.00958	1500
1	6056	0.00959	1500
[...]
44	110132	0.17328	1518
44	110136	0.17329	1518
44	110140	0.1733	1518
44	110144	0.17331	1518
44	110148	0.17332	1518
44	110152	0.17333	1518
44	110156	0.17334	1518
44	110160	0.17335	1518
44	110164	0.17336	1518
44	110168	0.17337	1518
44	110172	0.17338	1518
44	110209	0.1734	1518
44	110213	0.17341	1518
44	110217	0.17342	1518
44	110221	0.17343	1518
44	110225	0.17344	1518
44	110229	0.17345	1518
44	110233	0.17346	1518
44	110237	0.17347	1518
44	110241	0.17348	1518
44	110245	0.17349	1518
44	110249	0.1735	1518
44	110286	0.17352	1518
44	110290	0.17353	1518
44	110294	0.17354	1518
44	110298	0.17355	1518
44	110302	0.17356	1518
44	110306	0.17357	1518
44	110310	0.17358	1518
44	110314	0.17359	1518
44	110318	0.1736	1518
44	110322	0.17361	1518
44	110326	0.17362	1518
44	110330	0.17363	1518
44	110367	0.17365	1518
44	110371	0.17366	1518
44	110375	0.17367	1518
44	110379	0.17368	1518
44	110383	0.17369	1518
44	110387	0.1737	1518
44	110391	0.17371	1518
44	110395	0.17372	1518
44	110399	0.17373	1518
44	110403	0.17374	1518
44	110407	0.17375	1518
44	110444	0.17377	1518
44	110448	0.17378	1518
44	110452	0.17379	1518
44	110456	0.1738	1518
44	110460	0.17381	1518
44	110464	0.17382	1518
44	110468	0.17383	1518
44	110472	0.17384	1518
44	110476	0.17385	1518
44	110480	0.17386	1518
44	110484	0.17387	1518
44	110521	0.17389	1518
44	110525	0.1739	1518
44	110529	0.17391	1518
44	110533	0.17392	1518
44	110537	0.17393	1518
44	110541	0.17394	1518
44	110545	0.17395	1518
44	110549	0.17396	1518
44	110553	0.17397	1518
44	110557	0.17398	1518
44	110561	0.17399	1518
44	110571	0.174	1518
44	110602	0.17402	1518
44	110606	0.17403	1518
44	110610	0.17404	1518
44	110614	0.17405	1518
44	110618	0.17406	1518
44	110622	0.17407	1518
44	110626	0.17408	1518
44	110630	0.17409	1518
44	110634	0.1741	1518
44	110638	0.17411	1518
44	110642	0.17412	1518
44	110679	0.17414	1518
44	110683	0.17415	1518
44	110687	0.17416	1518
44	110691	0.17417	1518
44	110695	0.17418	1518
44	110699	0.17419	1518
44	110703	0.1742	1518
44	110707	0.17421	1518
44	110711	0.17422	1518
44	110715	0.17423	1518
44	110719	0.17424	1518
44	110756	0.17426	1518
44	110760	0.17427	1518
44	110764	0.17428	1518
44	110768	0.17429	1518
44	110772	0.1743	1518
44	110776	0.17431	1518
44	110780	0.17432	1518
44	110784	0.17433	1518
44	110788	0.17434	1518
44	110792	0.17435	1518
44	110796	0.17436	1518
44	110832	0.17438	1518
44	110837	0.17439	1518
44	110841	0.1744	1518
44	110845	0.17441	1518
44	110849	0.17442	1518
44	110853	0.17443	1518
44	110857	0.17444	1518
44	110861	0.17445	1518
44	110865	0.17446	1518
44	110869	0.17447	1518
44	110873	0.17448	1518
44	110877	0.17449	1518
44	110914	0.17451	1518
44	110918	0.17452	1518
44	110922	0.17453	1518
44	110926	0.17454	1518
44	110930	0.17455	1518
44	110934	0.17456	1518
44	110938	0.17457	1518
44	110942	0.17458	1518
44	110946	0.17459	1518
44	110950	0.1746	1518
44	110954	0.17461	1518
44	110991	0.17463	1518
44	110995	0.17464	1518
44	110999	0.17465	1518
44	111003	0.17466	1518
44	111007	0.17467	1518
44	111011	0.17468	1518
44	111015	0.17469	1518
44	111019	0.1747	1518
44	111023	0.17471	1518
44	111027	0.17472	1518
44	111031	0.17473	1518
44	111068	0.17475	1518
44	111072	0.17476	1518
44	111076	0.17477	1518
44	111080	0.17478	1518
44	111084	0.17479	1518
44	111088	0.1748	1518
44	111092	0.17481	1518
44	111096	0.17482	1518
44	111100	0.17483	1518
44	111104	0.17484	1518
44	111108	0.17485	1518
44	111112	0.17486	1518
44	111149	0.17488	1518
44	111153	0.17489	1518
44	111157	0.1749	1518
44	111161	0.17491	1518
44	111165	0.17492	1518
44	111169	0.17493	1518
44	111173	0.17494	1518
44	111177	0.17495	1518
44	111181	0.17496	1518
44	111185	0.17497	1518
44	111189	0.17498	1518
44	111226	0.175	1518
44	111230	0.17501	1518
44	111234	0.17502	1518
44	111238	0.17503	1518
44	111242	0.17504	1518
44	111246	0.17505	1518
44	111250	0.17506	1518
44	111254	0.17507	1518
44	111258	0.17508	1518
44	111262	0.17509	1518
44	111266	0.1751	1518
44	111303	0.17512	1518
44	111307	0.17513	1518
44	111311	0.17514	1518
44	111315	0.17515	1518
44	111319	0.17516	1518
44	111323	0.17517	1518
44	111327	0.17518	1518
44	111331	0.17519	1518
44	111335	0.1752	1518
44	111339	0.17521	1518
44	111343	0.17522	1518
44	111353	0.17523	1518
44	111384	0.17525	1518
44	111388	0.17526	1518
44	111392	0.17527	1518
44	111396	0.17528	1518
44	111400	0.17529	1518
44	111404	0.1753	1518
44	111408	0.17531	1518
44	111412	0.17532	1518
44	111416	0.17533	1518
44	111420	0.17534	1518
44	111424	0.17535	1518
44	111461	0.17537	1518
44	111465	0.17538	1518
44	111469	0.17539	1518
44	111473	0.1754	1518
44	111477	0.17541	1518
44	111481	0.17542	1518
44	111485	0.17543	1518
44	111489	0.17544	1518
44	111493	0.17545	1518
44	111497	0.17546	1518
44	111501	0.17547	1518
44	111538	0.17549	1518
44	111542	0.1755	1518
44	111546	0.17551	1518
44	111550	0.17552	1518
44	111554	0.17553	1518
44	111558	0.17554	1518
44	111562	0.17555	1518
44	111566	0.17556	1518
44	111570	0.17557	1518
44	111574	0.17558	1518
44	111578	0.17559	1518
44	111614	0.17561	1518
44	111619	0.17562	1518
44	111623	0.17563	1518
44	111627	0.17564	1518
44	111631	0.17565	1518
44	111635	0.17566	1518
44	111639	0.17567	1518
44	111643	0.17568	1518
44	111647	0.17569	1518
44	111651	0.1757	1518
44	111655	0.17571	1518
44	111659	0.17572	1518
44	111696	0.17574	1518
44	111700	0.17575	1518
44	111704	0.17576	1518
44	111708	0.17577	1518
44	111712	0.17578	1518
44	111716	0.17579	1518
44	111720	0.1758	1518
44	111724	0.17581	1518
44	111728	0.17582	1518
44	111732	0.17583	1518
44	111736	0.17584	1518
44	111773	0.17586	1518
44	111777	0.17587	1518
44	111781	0.17588	1518
44	111785	0.17589	1518
44	111789	0.1759	1518
44	111793	0.17591	1518
44	111797	0.17592	1518
44	111801	0.17593	1518
44	111805	0.17594	1518
44	111809	0.17595	1518
44	111813	0.17596	1518
44	111850	0.17598	1518
44	111854	0.17599	1518
44	111858	0.176	1518
44	111862	0.17601	1518
44	111866	0.17602	1518
44	111870	0.17603	1518
44	111874	0.17604	1518
44	111878	0.17605	1518
44	111882	0.17606	1518
44	111886	0.17607	1518
44	111890	0.17608	1518
44	111894	0.17609	1518
44	111931	0.17611	1518
44	111935	0.17612	1518
44	111939	0.17613	1518
44	111943	0.17614	1518
44	111947	0.17615	1518
44	111951	0.17616	1518
44	111955	0.17617	1518
44	111959	0.17618	1518
44	111963	0.17619	1518
44	111967	0.1762	1518
44	111971	0.17621	1518
44	112008	0.17623	1518
44	112012	0.17624	1518
44	112016	0.17625	1518
44	112020	0.17626	1518
44	112024	0.17627	1518
44	112028	0.17628	1518
44	112032	0.17629	1518
44	112036	0.1763	1518
44	112040	0.17631	1518
44	112044	0.17632	1518
44	112048	0.17633	1518
44	112085	0.17635	1518
44	112089	0.17636	1518
44	112093	0.17637	1518
44	112097	0.17638	1518
44	112101	0.17639	1518
44	112105	0.1764	1518
44	112109	0.17641	1518
44	112113	0.17642	1518
44	112117	0.17643	1518
44	112121	0.17644	1518
44	112125	0.17645	1518
44	112129	0.17646	1518
44	112166	0.17648	1518
44	112170	0.17649	1518
44	112174	0.1765	1518
44	112178	0.17651	1518
44	112182	0.17652	1518
44	112186	0.17653	1518
44	112190	0.17654	1518
44	112194	0.17655	1518
44	112198	0.17656	1518
44	112202	0.17657	1518
44	112206	0.17658	1518
44	112243	0.1766	1518
44	112247	0.17661	1518
44	112251	0.17662	1518
44	112255	0.17663	1518
44	112259	0.17664	1518
44	112263	0.17665	1518
44	112267	0.17666	1518
44	112271	0.17667	1518
44	112275	0.17668	1518
44	112279	0.17669	1518
44	112283	0.1767	1518
44	112320	0.17672	1518
44	112324	0.17673	1518
44	112328	0.17674	1518
44	112332	0.17675	1518
44	112336	0.17676	1518
44	112340	0.17677	1518
44	112344	0.17678	1518
44	112348	0.17679	1518
44	112352	0.1768	1518
44	112356	0.17681	1518
44	112360	0.17682	1518
44	112370	0.17683	1518
44	112401	0.17685	1518
44	112405	0.17686	1518
44	112409	0.17687	1518
44	112413	0.17688	1518
44	112417	0.17689	1518
44	112421	0.1769	1518
44	112425	0.17691	1518
44	112429	0.17692	1518
44	112433	0.17693	1518
44	112437	0.17694	1518
44	112441	0.17695	1518
44	112478	0.17697	1518
44	112482	0.17698	1518
44	112486	0.17699	1518
44	112490	0.177	1518
44	112494	0.17701	1518
44	112498	0.17702	1518
44	112502	0.17703	1518
44	112506	0.17704	1518
44	112510	0.17705	1518
44	112514	0.17706	1518
44	112518	0.17707	1518
44	112555	0.17709	1518
44	112559	0.1771	1518
44	112563	0.17711	1518
44	112567	0.17712	1518
44	112571	0.17713	1518
44	112575	0.17714	1518
44	112579	0.17715	1518
44	112583	0.17716	1518
44	112587	0.17717	1518
44	112591	0.17718	1518
44	112595	0.17719	1518
44	112632	0.17721	1518
44	112636	0.17722	1518
44	112640	0.17723	1518
44	112644	0.17724	1518
44	112648	0.17725	1518
44	112652	0.17726	1518
44	112656	0.17727	1518
44	112660	0.17728	1518
44	112664	0.17729	1518
44	112668	0.1773	1518
44	112672	0.17731	1518
44	112676	0.17732	1518
44	112713	0.17734	1518
44	112717	0.17735	1518
44	112721	0.17736	1518
44	112725	0.17737	1518
44	112729	0.17738	1518
44	112733	0.17739	1518
44	112737	0.1774	1518
44	112741	0.17741	1518
44	112745	0.17742	1518
44	112749	0.17743	1518
44	112753	0.17744	1518
44	112790	0.17746	1518
44	112794	0.17747	1518
44	112798	0.17748	1518
44	112802	0.17749	1518
44	112806	0.1775	1518
44	112810	0.17751	1518
44	112814	0.17752	1518
44	112818	0.17753	1518
44	112822	0.17754	1518
44	112826	0.17755	1518
44	112830	0.17756	1518
44	112867	0.17758	1518
44	112871	0.17759	1518
44	112875	0.1776	1518
44	112879	0.17761	1518
44	112883	0.17762	1518
44	112887	0.17763	1518
44	112891	0.17764	1518
44	112895	0.17765	1518
44	112899	0.17766	1518
44	112903	0.17767	1518
44	112907	0.17768	1518
44	112911	0.17769	1518
44	112948	0.17771	1518
44	112952	0.17772	1518
44	112956	0.17773	1518
44	112960	0.17774	1518
44	112964	0.17775	1518
44	112968	0.17776	1518
44	112972	0.17777	1518
44	112976	0.17778	1518
44	112980	0.17779	1518
44	112984	0.1778	1518
44	112988	0.17781	1518
44	113025	0.17783	1518
44	113029	0.17784	1518
44	113033	0.17785	1518
44	113037	0.17786	1518
44	113041	0.17787	1518
44	113045	0.17788	1518
44	113049	0.17789	1518
44	113053	0.1779	1518
44	113057	0.17791	1518
44	113061	0.17792	1518
44	113065	0.17793	1518
44	113102	0.17795	1518
44	113106	0.17796	1518
44	113110	0.17797	1518
44	113114	0.17798	1518
44	113118	0.17799	1518
44	113122	0.178	1518
44	113126	0.17801	1518
44	113130	0.17802	1518
44	113134	0.17803	1518
44	113138	0.17804	1518
44	113142	0.17805	1518
44	113152	0.17806	1518
44	113183	0.17808	1518
44	113187	0.17809	1518
44	113191	0.1781	1518
44	113195	0.17811	1518
44	113199	0.17812	1518
44	113203	0.17813	1518
44	113207	0.17814	1518
44	113211	0.17815	1518
44	113215	0.17816	1518
44	113219	0.17817	1518
44	113223	0.17818	1518
44	113260	0.1782	1518
44	113264	0.17821	1518
44	113268	0.17822	1518
44	113272	0.17823	1518
44	113276	0.17824	1518
44	113280	0.17825	1518
44	113284	0.17826	1518
44	113288	0.17827	1518
44	113292	0.17828	1518
44	113296	0.17829	1518
44	113300	0.1783	1518
44	113337	0.17832	1518
44	113341	0.17833	1518
44	113345	0.17834	1518
44	113349	0.17835	1518
44	113353	0.17836	1518
44	113357	0.17837	1518
44	113361	0.17838	1518
44	113365	0.17839	1518
44	113369	0.1784	1518
44	113373	0.17841	1518
44	113377	0.17842	1518
44	113413	0.17844	1518
44	113418	0.17845	1518
44	113422	0.17846	1518
44	113426	0.17847	1518
44	113430	0.17848	1518
44	113434	0.17849	1518
44	113438	0.1785	1518
44	113442	0.17851	1518
44	113446	0.17852	1518
44	113450	0.17853	1518
44	113454	0.17854	1518
44	113458	0.17855	1518
44	113495	0.17857	1518
44	113499	0.17858	1518
44	113503	0.17859	1518
44	113507	0.1786	1518
44	113511	0.17861	1518
44	113515	0.17862	1518
44	113519	0.17863	1518
44	113523	0.17864	1518
44	113527	0.17865	1518
44	113531	0.17866	1518
44	113535	0.17867	1518
44	113572	0.17869	1518
44	113576	0.1787	1518
44	113580	0.17871	1518
44	113584	0.17872	1518
44	113588	0.17873	1518
44	113592	0.17874	1518
44	113596	0.17875	1518
44	113600	0.17876	1518
44	113604	0.17877	1518
44	113608	0.17878	1518
44	113612	0.17879	1518
44	113649	0.17881	1518
44	113653	0.17882	1518
44	113657	0.17883	1518
44	113661	0.17884	1518
44	113665	0.17885	1518
44	113669	0.17886	1518
44	113673	0.17887	1518
44	113677	0.17888	1518
44	113681	0.17889	1518
44	113685	0.1789	1518
44	113689	0.17891	1518
44	113693	0.17892	1518
44	113730	0.17894	1518
44	113734	0.17895	1518
44	113738	0.17896	1518
44	113742	0.17897	1518
44	113746	0.17898	1518
44	113750	0.17899	1518
44	113754	0.179	1518
44	113758	0.17901	1518
44	113762	0.17902	1518
44	113766	0.17903	1518
44	113770	0.17904	1518
44	113807	0.17906	1518
44	113811	0.17907	1518
44	113815	0.17908	1518
44	113819	0.17909	1518
44	113823	0.1791	1518
44	113827	0.17911	1518
44	113831	0.17912	1518
44	113835	0.17913	1518
44	113839	0.17914	1518
44	113843	0.17915	1518
44	113847	0.17916	1518
44	113884	0.17918	1518
44	113888	0.17919	1518
44	113892	0.1792	1518
44	113896	0.17921	1518
44	113900	0.17922	1518
44	113904	0.17923	1518
44	113908	0.17924	1518
44	113912	0.17925	1518
44	113916	0.17926	1518
44	113920	0.17927	1518
44	113924	0.17928	1518
44	113934	0.17929	1518
44	113965	0.17931	1518
44	113969	0.17932	1518
44	113973	0.17933	1518
44	113977	0.17934	1518
44	113981	0.17935	1518
44	113985	0.17936	1518
44	113989	0.17937	1518
44	113993	0.17938	1518
44	113997	0.17939	1518
44	114001	0.1794	1518
44	114005	0.17941	1518
44	114042	0.17943	1518
44	114046	0.17944	1518
44	114050	0.17945	1518
44	114054	0.17946	1518
44	114058	0.17947	1518
44	114062	0.17948	1518
44	114066	0.17949	1518
44	114070	0.1795	1518
44	114074	0.17951	1518
44	114078	0.17952	1518
44	114082	0.17953	1518
44	114119	0.17955	1518
44	114123	0.17956	1518
44	114127	0.17957	1518
44	114131	0.17958	1518
44	114135	0.17959	1518
44	114139	0.1796	1518
44	114143	0.17961	1518
44	114147	0.17962	1518
44	114151	0.17963	1518
44	114155	0.17964	1518
44	114159	0.17965	1518
44	114169	0.17966	1518
44	114200	0.17968	1518
44	114204	0.17969	1518
44	114208	0.1797	1518
44	114212	0.17971	1518
44	114216	0.17972	1518
44	114220	0.17973	1518
44	114224	0.17974	1518
44	114228	0.17975	1518
44	114232	0.17976	1518
44	114236	0.17977	1518
44	114240	0.17978	1518
44	114277	0.1798	1518
44	114281	0.17981	1518
44	114285	0.17982	1518
44	114289	0.17983	1518
44	114293	0.17984	1518
44	114297	0.17985	1518
44	114301	0.17986	1518
44	114305	0.17987	1518
44	114309	0.17988	1518
44	114313	0.17989	1518
44	114317	0.1799	1518
44	114354	0.17992	1518
44	114358	0.17993	1518
44	114362	0.17994	1518
44	114366	0.17995	1518
44	114370	0.17996	1518
44	114374	0.17997	1518
44	114378	0.17998	1518
44	114382	0.17999	1518
44	114386	0.18	1518
44	114390	0.18001	1518
44	114394	0.18002	1518
44	114431	0.18004	1518
44	114435	0.18005	1518
44	114439	0.18006	1518
44	114443	0.18007	1518
44	114447	0.18008	1518
44	114451	0.18009	1518
44	114455	0.1801	1518
44	114459	0.18011	1518
44	114463	0.18012	1518
44	114467	0.18013	1518
44	114471	0.18014	1518
44	114475	0.18015	1518
44	114512	0.18017	1518
44	114516	0.18018	1518
44	114520	0.18019	1518
44	114524	0.1802	1518
44	114528	0.18021	1518
44	114532	0.18022	1518
44	114536	0.18023	1518
44	114540	0.18024	1518
44	114544	0.18025	1518
44	114548	0.18026	1518
44	114552	0.18027	1518
44	114589	0.18029	1518
44	114593	0.1803	1518
44	114597	0.18031	1518
44	114601	0.18032	1518
44	114605	0.18033	1518
44	114609	0.18034	1518
44	114613	0.18035	1518
44	114617	0.18036	1518
44	114621	0.18037	1518
44	114625	0.18038	1518
44	114629	0.18039	1518
44	114666	0.18041	1518
44	114670	0.18042	1518
44	114674	0.18043	1518
44	114678	0.18044	1518
44	114682	0.18045	1518
44	114686	0.18046	1518
44	114690	0.18047	1518
44	114694	0.18048	1518
44	114698	0.18049	1518
44	114702	0.1805	1518
44	114706	0.18051	1518
44	114710	0.18052	1518
44	114747	0.18054	1518
44	114751	0.18055	1518
44	114755	0.18056	1518
44	114759	0.18057	1518
44	114763	0.18058	1518
44	114767	0.18059	1518
44	114771	0.1806	1518
44	114775	0.18061	1518
44	114779	0.18062	1518
44	114783	0.18063	1518
44	114787	0.18064	1518
44	114824	0.18066	1518
44	114828	0.18067	1518
44	114832	0.18068	1518
44	114836	0.18069	1518
44	114840	0.1807	1518
44	114844	0.18071	1518
44	114848	0.18072	1518
44	114852	0.18073	1518
44	114856	0.18074	1518
44	114860	0.18075	1518
44	114864	0.18076	1518
44	114901	0.18078	1518
44	114905	0.18079	1518
44	114909	0.1808	1518
44	114913	0.18081	1518
44	114917	0.18082	1518
44	114921	0.18083	1518
44	114925	0.18084	1518
44	114929	0.18085	1518
44	114933	0.18086	1518
44	114937	0.18087	1518
44	114941	0.18088	1518
44	114951	0.18089	1518
44	114982	0.18091	1518
44	114986	0.18092	1518
44	114990	0.18093	1518
44	114994	0.18094	1518
44	114998	0.18095	1518
44	115002	0.18096	1518
44	115006	0.18097	1518
44	115010	0.18098	1518
44	115014	0.18099	1518
44	115018	0.181	1518
44	115022	0.18101	1518
44	115059	0.18103	1518
44	115063	0.18104	1518
44	115067	0.18105	1518
44	115071	0.18106	1518
44	115075	0.18107	1518
44	115079	0.18108	1518
44	115083	0.18109	1518
44	115087	0.1811	1518
44	115091	0.18111	1518
44	115095	0.18112	1518
44	115099	0.18113	1518
44	115136	0.18115	1518
44	115140	0.18116	1518
44	115144	0.18117	1518
44	115148	0.18118	1518
44	115152	0.18119	1518
44	115156	0.1812	1518
44	115160	0.18121	1518
44	115164	0.18122	1518
44	115168	0.18123	1518
44	115172	0.18124	1518
44	115176	0.18125	1518
44	115212	0.18127	1518
44	115217	0.18128	1518
44	115221	0.18129	1518
44	115225	0.1813	1518
44	115229	0.18131	1518
44	115233	0.18132	1518
44	115237	0.18133	1518
44	115241	0.18134	1518
44	115245	0.18135	1518
44	115249	0.18136	1518
44	115253	0.18137	1518
44	115257	0.18138	1518
44	115294	0.1814	1518
44	115298	0.18141	1518
44	115302	0.18142	1518
44	115306	0.18143	1518
44	115310	0.18144	1518
44	115314	0.18145	1518
44	115318	0.18146	1518
44	115322	0.18147	1518
44	115326	0.18148	1518
44	115330	0.18149	1518
44	115334	0.1815	1518
44	115371	0.18152	1518
44	115375	0.18153	1518
44	115379	0.18154	1518
44	115383	0.18155	1518
44	115387	0.18156	1518
44	115391	0.18157	1518
44	115395	0.18158	1518
44	115399	0.18159	1518
44	115403	0.1816	1518
44	115407	0.18161	1518
44	115411	0.18162	1518
44	115448	0.18164	1518
44	115452	0.18165	1518
44	115456	0.18166	1518
44	115460	0.18167	1518
44	115464	0.18168	1518
44	115468	0.18169	1518
44	115472	0.1817	1518
44	115476	0.18171	1518
44	115480	0.18172	1518
44	115484	0.18173	1518
44	115488	0.18174	1518
44	115492	0.18175	1518
44	115529	0.18177	1518
44	115533	0.18178	1518
44	115537	0.18179	1518
44	115541	0.1818	1518
44	115545	0.18181	1518
44	115549	0.18182	1518
44	115553	0.18183	1518
44	115557	0.18184	1518
44	115561	0.18185	1518
44	115565	0.18186	1518
44	115569	0.18187	1518
44	115606	0.18189	1518
44	115610	0.1819	1518
44	115614	0.18191	1518
44	115618	0.18192	1518
44	115622	0.18193	1518
44	115626	0.18194	1518
44	115630	0.18195	1518
44	115634	0.18196	1518
44	115638	0.18197	1518
44	115642	0.18198	1518
44	115646	0.18199	1518
44	115683	0.18201	1518
44	115687	0.18202	1518
44	115691	0.18203	1518
44	115695	0.18204	1518
44	115699	0.18205	1518
44	115703	0.18206	1518
44	115707	0.18207	1518
44	115711	0.18208	1518
44	115715	0.18209	1518
44	115719	0.1821	1518
44	115723	0.18211	1518
44	115733	0.18212	1518
44	115764	0.18214	1518
44	115768	0.18215	1518
44	115772	0.18216	1518
44	115776	0.18217	1518
44	115780	0.18218	1518
44	115784	0.18219	1518
44	115788	0.1822	1518
44	115792	0.18221	1518
44	115796	0.18222	1518
44	115800	0.18223	1518
44	115804	0.18224	1518
44	115841	0.18226	1518
44	115845	0.18227	1518
44	115849	0.18228	1518
44	115853	0.18229	1518
44	115857	0.1823	1518
44	115861	0.18231	1518
44	115865	0.18232	1518
44	115869	0.18233	1518
44	115873	0.18234	1518
44	115877	0.18235	1518
44	115881	0.18236	1518

