version 2
run TestWirelessAndWiredNetwork-0-20200908-13:24:43-20228
attr configname TestWirelessAndWiredNetwork
attr datetime 20200908-13:24:43
attr experiment TestWirelessAndWiredNetwork
attr inifile test.ini
attr iterationvars ""
attr iterationvarsf ""
attr measurement ""
attr network TestWirelessAndWiredNetwork
attr processid 20228
attr repetition 0
attr replication #0
attr resultdir results
attr runnumber 0
attr seedset 0
param *.visualizer.*.interfaceTableVisualizer.nodeFilter "\"not (*Switch* accessPoint)\""
param *.*Host*.numApps 1
param *.*Host*.app[*].typename "\"PingApp\""
param *.*Host*.app[*].startTime "5s+uniform(0.01ms, 0.05ms)"
param *.standardHost1.app[*].destAddr "\"wirelessHost2\""
param *.standardHost2.app[*].destAddr "\"wirelessHost1\""
param *.wirelessHost1.app[*].destAddr "\"standardHost2\""
param *.wirelessHost2.app[*].destAddr "\"standardHost1\""
param *.visualizer.*.interfaceTableVisualizer.displayInterfaceTables true

scalar TestWirelessAndWiredNetwork.radioMedium.propagation "Arrival computation count" 196
scalar TestWirelessAndWiredNetwork.radioMedium "transmission count" 98
scalar TestWirelessAndWiredNetwork.radioMedium "signal send count" 196
scalar TestWirelessAndWiredNetwork.radioMedium "reception computation count" 196
scalar TestWirelessAndWiredNetwork.radioMedium "interference computation count" 683
scalar TestWirelessAndWiredNetwork.radioMedium "reception decision computation count" 193
scalar TestWirelessAndWiredNetwork.radioMedium "listening decision computation count" 296
scalar TestWirelessAndWiredNetwork.radioMedium "reception cache hit" 85.598824393828
attr unit %
scalar TestWirelessAndWiredNetwork.radioMedium "interference cache hit" 66.666666666667
attr unit %
scalar TestWirelessAndWiredNetwork.radioMedium "noise cache hit" 0
attr unit %
scalar TestWirelessAndWiredNetwork.radioMedium "snir cache hit" 50
attr unit %
scalar TestWirelessAndWiredNetwork.radioMedium "reception decision cache hit" 50
attr unit %
scalar TestWirelessAndWiredNetwork.radioMedium "reception result cache hit" 0
attr unit %
scalar TestWirelessAndWiredNetwork.etherSwitch.relayUnit "number of received BPDUs from STP module" 0
scalar TestWirelessAndWiredNetwork.etherSwitch.relayUnit "number of received frames from network (including BPDUs)" 10
scalar TestWirelessAndWiredNetwork.etherSwitch.relayUnit "number of dropped frames (including BPDUs)" 0
scalar TestWirelessAndWiredNetwork.etherSwitch.relayUnit "number of delivered BPDUs to the STP module" 0
scalar TestWirelessAndWiredNetwork.etherSwitch.relayUnit "number of dispatched BPDU frames to the network" 0
scalar TestWirelessAndWiredNetwork.etherSwitch.relayUnit "number of dispatched non-BDPU frames to the network" 12
scalar TestWirelessAndWiredNetwork.etherSwitch.eth[0].mac.queue packetPopped:count 6
attr interpolationmode none
attr title "packet popped, count"
scalar TestWirelessAndWiredNetwork.etherSwitch.eth[0].mac.queue packetPopped:sum(packetBytes) 536
attr interpolationmode none
attr title "packet popped, sum(packetBytes)"
statistic TestWirelessAndWiredNetwork.etherSwitch.eth[0].mac.queue queueingTime:histogram
field count 6
field mean 0
field stddev 0
field min 0
field max 0
field sum 0
field sqrsum 0
attr interpolationmode none
attr source queueingTime(packetPopped)
attr title "queueing times, histogram"
attr unit s
bin	-inf	0
bin	-0.5	0
bin	-0.48	0
bin	-0.46	0
bin	-0.44	0
bin	-0.42	0
bin	-0.4	0
bin	-0.38	0
bin	-0.36	0
bin	-0.34	0
bin	-0.32	0
bin	-0.3	0
bin	-0.28	0
bin	-0.26	0
bin	-0.24	0
bin	-0.22	0
bin	-0.2	0
bin	-0.18	0
bin	-0.16	0
bin	-0.14	0
bin	-0.12	0
bin	-0.1	0
bin	-0.08	0
bin	-0.06	0
bin	-0.04	0
bin	-0.02	0
bin	0	6
bin	0.02	0
bin	0.04	0
bin	0.06	0
bin	0.08	0
bin	0.1	0
bin	0.12	0
bin	0.14	0
bin	0.16	0
bin	0.18	0
bin	0.2	0
bin	0.22	0
bin	0.24	0
bin	0.26	0
bin	0.28	0
bin	0.3	0
bin	0.32	0
bin	0.34	0
bin	0.36	0
bin	0.38	0
bin	0.4	0
bin	0.42	0
bin	0.44	0
bin	0.46	0
bin	0.48	0
bin	0.5	0
scalar TestWirelessAndWiredNetwork.etherSwitch.eth[0].mac.queue queueLength:max 1
attr interpolationmode sample-hold
attr source "count(packetPushed) - count(packetPopped) - count(packetRemoved) - count(packetDropped)"
attr title "queue length, max"
scalar TestWirelessAndWiredNetwork.etherSwitch.eth[0].mac.queue queueLength:timeavg 0
attr interpolationmode sample-hold
attr source "count(packetPushed) - count(packetPopped) - count(packetRemoved) - count(packetDropped)"
attr title "queue length, timeavg"
scalar TestWirelessAndWiredNetwork.etherSwitch.eth[0].mac.queue packetPushed:count 6
attr interpolationmode none
attr title "packet pushed, count"
scalar TestWirelessAndWiredNetwork.etherSwitch.eth[0].mac.queue packetPushed:sum(packetBytes) 536
attr interpolationmode none
attr title "packet pushed, sum(packetBytes)"
scalar TestWirelessAndWiredNetwork.etherSwitch.eth[0].mac.queue packetDropQueueOverflow:count 0
attr interpolationmode none
attr source packetDropReasonIsQueueOverflow(packetDropped)
attr title "packet drops: queue overflow, count"
scalar TestWirelessAndWiredNetwork.etherSwitch.eth[0].mac.queue packetDropQueueOverflow:sum(packetBytes) 0
attr interpolationmode none
attr source packetDropReasonIsQueueOverflow(packetDropped)
attr title "packet drops: queue overflow, sum(packetBytes)"
scalar TestWirelessAndWiredNetwork.etherSwitch.eth[0].mac.queue packetRemoved:count 0
attr interpolationmode none
attr title "packets removed, count"
scalar TestWirelessAndWiredNetwork.etherSwitch.eth[0].mac.queue packetRemoved:sum(packetBytes) 0
attr interpolationmode none
attr title "packets removed, sum(packetBytes)"
scalar TestWirelessAndWiredNetwork.etherSwitch.eth[0].mac "simulated time" 5.002306090211
scalar TestWirelessAndWiredNetwork.etherSwitch.eth[0].mac full-duplex 1
scalar TestWirelessAndWiredNetwork.etherSwitch.eth[0].mac "frames/sec sent" 1.1994467934982
scalar TestWirelessAndWiredNetwork.etherSwitch.eth[0].mac "frames/sec rcvd" 0.79963119566545
scalar TestWirelessAndWiredNetwork.etherSwitch.eth[0].mac "bits/sec sent" 857.20464175337
scalar TestWirelessAndWiredNetwork.etherSwitch.eth[0].mac "bits/sec rcvd" 530.95511392186
scalar TestWirelessAndWiredNetwork.etherSwitch.eth[0].mac "rx channel idle (%)" 99.99941786849
scalar TestWirelessAndWiredNetwork.etherSwitch.eth[0].mac "rx channel utilization (%)" 0.00058213151044445
scalar TestWirelessAndWiredNetwork.etherSwitch.eth[0].mac "rx channel collision (%)" 0
scalar TestWirelessAndWiredNetwork.etherSwitch.eth[0].mac collisions 0
scalar TestWirelessAndWiredNetwork.etherSwitch.eth[0].mac backoffs 0
scalar TestWirelessAndWiredNetwork.etherSwitch.eth[0].mac txPk:count 6
attr interpolationmode none
attr source packetSentToLower
attr title "packets transmitted, count"
scalar TestWirelessAndWiredNetwork.etherSwitch.eth[0].mac txPk:sum(packetBytes) 536
attr interpolationmode none
attr source packetSentToLower
attr title "packets transmitted, sum(packetBytes)"
scalar TestWirelessAndWiredNetwork.etherSwitch.eth[0].mac packetReceivedFromUpper:count 6
attr interpolationmode none
attr source packetReceivedFromUpper
attr title "packet bytes from higher layer, count"
scalar TestWirelessAndWiredNetwork.etherSwitch.eth[0].mac packetReceivedFromUpper:sum(packetBytes) 536
attr interpolationmode none
attr source packetReceivedFromUpper
attr title "packet bytes from higher layer, sum(packetBytes)"
scalar TestWirelessAndWiredNetwork.etherSwitch.eth[0].mac passedUpPk:count 4
attr interpolationmode none
attr source packetSentToUpper
attr title "packets passed to higher layer, count"
scalar TestWirelessAndWiredNetwork.etherSwitch.eth[0].mac passedUpPk:sum(packetBytes) 332
attr interpolationmode none
attr source packetSentToUpper
attr title "packets passed to higher layer, sum(packetBytes)"
scalar TestWirelessAndWiredNetwork.etherSwitch.eth[0].mac packetDropIncorrectlyReceived:count 0
attr interpolationmode none
attr source packetDropReasonIsIncorrectlyReceived(packetDropped)
attr title "packet drop: incorrectly received, count"
scalar TestWirelessAndWiredNetwork.etherSwitch.eth[0].mac packetDropIncorrectlyReceived:sum(packetBytes) 0
attr interpolationmode none
attr source packetDropReasonIsIncorrectlyReceived(packetDropped)
attr title "packet drop: incorrectly received, sum(packetBytes)"
scalar TestWirelessAndWiredNetwork.etherSwitch.eth[0].mac packetDropInterfaceDown:count 0
attr interpolationmode none
attr source packetDropReasonIsInterfaceDown(packetDropped)
attr title "packet drop: interface down, count"
scalar TestWirelessAndWiredNetwork.etherSwitch.eth[0].mac packetDropInterfaceDown:sum(packetBytes) 0
attr interpolationmode none
attr source packetDropReasonIsInterfaceDown(packetDropped)
attr title "packet drop: interface down, sum(packetBytes)"
scalar TestWirelessAndWiredNetwork.etherSwitch.eth[0].mac packetDropNotAddressedToUs:count 0
attr interpolationmode none
attr source packetDropReasonIsNotAddressedToUs(packetDropped)
attr title "packet drop: not addressed to us, count"
scalar TestWirelessAndWiredNetwork.etherSwitch.eth[0].mac packetDropNotAddressedToUs:sum(packetBytes) 0
attr interpolationmode none
attr source packetDropReasonIsNotAddressedToUs(packetDropped)
attr title "packet drop: not addressed to us, sum(packetBytes)"
scalar TestWirelessAndWiredNetwork.etherSwitch.eth[0].mac backoffSlotsGenerated:count 0
attr interpolationmode none
attr title "backoff, count"
scalar TestWirelessAndWiredNetwork.etherSwitch.eth[0].mac collision:count 0
attr interpolationmode none
attr title "collision, count"
scalar TestWirelessAndWiredNetwork.etherSwitch.eth[0].mac rxPausePkUnits:count 0
attr interpolationmode none
attr title "pause units received, count"
scalar TestWirelessAndWiredNetwork.etherSwitch.eth[0].mac rxPausePkUnits:sum 0
attr interpolationmode none
attr title "pause units received, sum"
scalar TestWirelessAndWiredNetwork.etherSwitch.eth[0].mac txPausePkUnits:count 0
attr interpolationmode none
attr title "pause units sent, count"
scalar TestWirelessAndWiredNetwork.etherSwitch.eth[0].mac txPausePkUnits:sum 0
attr interpolationmode none
attr title "pause units sent, sum"
scalar TestWirelessAndWiredNetwork.etherSwitch.eth[0].mac rxPkOk:count 4
attr interpolationmode none
attr source rxPkOk
attr title "packets received OK, count"
scalar TestWirelessAndWiredNetwork.etherSwitch.eth[0].mac rxPkOk:sum(packetBytes) 332
attr interpolationmode none
attr source rxPkOk
attr title "packets received OK, sum(packetBytes)"
scalar TestWirelessAndWiredNetwork.etherSwitch.eth[1].mac.queue packetPopped:count 3
attr interpolationmode none
attr title "packet popped, count"
scalar TestWirelessAndWiredNetwork.etherSwitch.eth[1].mac.queue packetPopped:sum(packetBytes) 230
attr interpolationmode none
attr title "packet popped, sum(packetBytes)"
statistic TestWirelessAndWiredNetwork.etherSwitch.eth[1].mac.queue queueingTime:histogram
field count 3
field mean 0
field stddev 0
field min 0
field max 0
field sum 0
field sqrsum 0
attr interpolationmode none
attr source queueingTime(packetPopped)
attr title "queueing times, histogram"
attr unit s
bin	-inf	0
bin	-0.5	0
bin	-0.48	0
bin	-0.46	0
bin	-0.44	0
bin	-0.42	0
bin	-0.4	0
bin	-0.38	0
bin	-0.36	0
bin	-0.34	0
bin	-0.32	0
bin	-0.3	0
bin	-0.28	0
bin	-0.26	0
bin	-0.24	0
bin	-0.22	0
bin	-0.2	0
bin	-0.18	0
bin	-0.16	0
bin	-0.14	0
bin	-0.12	0
bin	-0.1	0
bin	-0.08	0
bin	-0.06	0
bin	-0.04	0
bin	-0.02	0
bin	0	3
bin	0.02	0
bin	0.04	0
bin	0.06	0
bin	0.08	0
bin	0.1	0
bin	0.12	0
bin	0.14	0
bin	0.16	0
bin	0.18	0
bin	0.2	0
bin	0.22	0
bin	0.24	0
bin	0.26	0
bin	0.28	0
bin	0.3	0
bin	0.32	0
bin	0.34	0
bin	0.36	0
bin	0.38	0
bin	0.4	0
bin	0.42	0
bin	0.44	0
bin	0.46	0
bin	0.48	0
bin	0.5	0
scalar TestWirelessAndWiredNetwork.etherSwitch.eth[1].mac.queue queueLength:max 1
attr interpolationmode sample-hold
attr source "count(packetPushed) - count(packetPopped) - count(packetRemoved) - count(packetDropped)"
attr title "queue length, max"
scalar TestWirelessAndWiredNetwork.etherSwitch.eth[1].mac.queue queueLength:timeavg 0
attr interpolationmode sample-hold
attr source "count(packetPushed) - count(packetPopped) - count(packetRemoved) - count(packetDropped)"
attr title "queue length, timeavg"
scalar TestWirelessAndWiredNetwork.etherSwitch.eth[1].mac.queue packetPushed:count 3
attr interpolationmode none
attr title "packet pushed, count"
scalar TestWirelessAndWiredNetwork.etherSwitch.eth[1].mac.queue packetPushed:sum(packetBytes) 230
attr interpolationmode none
attr title "packet pushed, sum(packetBytes)"
scalar TestWirelessAndWiredNetwork.etherSwitch.eth[1].mac.queue packetDropQueueOverflow:count 0
attr interpolationmode none
attr source packetDropReasonIsQueueOverflow(packetDropped)
attr title "packet drops: queue overflow, count"
scalar TestWirelessAndWiredNetwork.etherSwitch.eth[1].mac.queue packetDropQueueOverflow:sum(packetBytes) 0
attr interpolationmode none
attr source packetDropReasonIsQueueOverflow(packetDropped)
attr title "packet drops: queue overflow, sum(packetBytes)"
scalar TestWirelessAndWiredNetwork.etherSwitch.eth[1].mac.queue packetRemoved:count 0
attr interpolationmode none
attr title "packets removed, count"
scalar TestWirelessAndWiredNetwork.etherSwitch.eth[1].mac.queue packetRemoved:sum(packetBytes) 0
attr interpolationmode none
attr title "packets removed, sum(packetBytes)"
scalar TestWirelessAndWiredNetwork.etherSwitch.eth[1].mac "simulated time" 5.002306090211
scalar TestWirelessAndWiredNetwork.etherSwitch.eth[1].mac full-duplex 1
scalar TestWirelessAndWiredNetwork.etherSwitch.eth[1].mac "frames/sec sent" 0.59972339674909
scalar TestWirelessAndWiredNetwork.etherSwitch.eth[1].mac "frames/sec rcvd" 0.59972339674909
scalar TestWirelessAndWiredNetwork.etherSwitch.eth[1].mac "bits/sec sent" 367.83035000611
scalar TestWirelessAndWiredNetwork.etherSwitch.eth[1].mac "bits/sec rcvd" 428.60232087668
scalar TestWirelessAndWiredNetwork.etherSwitch.eth[1].mac "rx channel idle (%)" 99.999533015382
scalar TestWirelessAndWiredNetwork.etherSwitch.eth[1].mac "rx channel utilization (%)" 0.00046698461826862
scalar TestWirelessAndWiredNetwork.etherSwitch.eth[1].mac "rx channel collision (%)" 0
scalar TestWirelessAndWiredNetwork.etherSwitch.eth[1].mac collisions 0
scalar TestWirelessAndWiredNetwork.etherSwitch.eth[1].mac backoffs 0
scalar TestWirelessAndWiredNetwork.etherSwitch.eth[1].mac txPk:count 3
attr interpolationmode none
attr source packetSentToLower
attr title "packets transmitted, count"
scalar TestWirelessAndWiredNetwork.etherSwitch.eth[1].mac txPk:sum(packetBytes) 230
attr interpolationmode none
attr source packetSentToLower
attr title "packets transmitted, sum(packetBytes)"
scalar TestWirelessAndWiredNetwork.etherSwitch.eth[1].mac packetReceivedFromUpper:count 3
attr interpolationmode none
attr source packetReceivedFromUpper
attr title "packet bytes from higher layer, count"
scalar TestWirelessAndWiredNetwork.etherSwitch.eth[1].mac packetReceivedFromUpper:sum(packetBytes) 230
attr interpolationmode none
attr source packetReceivedFromUpper
attr title "packet bytes from higher layer, sum(packetBytes)"
scalar TestWirelessAndWiredNetwork.etherSwitch.eth[1].mac passedUpPk:count 3
attr interpolationmode none
attr source packetSentToUpper
attr title "packets passed to higher layer, count"
scalar TestWirelessAndWiredNetwork.etherSwitch.eth[1].mac passedUpPk:sum(packetBytes) 268
attr interpolationmode none
attr source packetSentToUpper
attr title "packets passed to higher layer, sum(packetBytes)"
scalar TestWirelessAndWiredNetwork.etherSwitch.eth[1].mac packetDropIncorrectlyReceived:count 0
attr interpolationmode none
attr source packetDropReasonIsIncorrectlyReceived(packetDropped)
attr title "packet drop: incorrectly received, count"
scalar TestWirelessAndWiredNetwork.etherSwitch.eth[1].mac packetDropIncorrectlyReceived:sum(packetBytes) 0
attr interpolationmode none
attr source packetDropReasonIsIncorrectlyReceived(packetDropped)
attr title "packet drop: incorrectly received, sum(packetBytes)"
scalar TestWirelessAndWiredNetwork.etherSwitch.eth[1].mac packetDropInterfaceDown:count 0
attr interpolationmode none
attr source packetDropReasonIsInterfaceDown(packetDropped)
attr title "packet drop: interface down, count"
scalar TestWirelessAndWiredNetwork.etherSwitch.eth[1].mac packetDropInterfaceDown:sum(packetBytes) 0
attr interpolationmode none
attr source packetDropReasonIsInterfaceDown(packetDropped)
attr title "packet drop: interface down, sum(packetBytes)"
scalar TestWirelessAndWiredNetwork.etherSwitch.eth[1].mac packetDropNotAddressedToUs:count 0
attr interpolationmode none
attr source packetDropReasonIsNotAddressedToUs(packetDropped)
attr title "packet drop: not addressed to us, count"
scalar TestWirelessAndWiredNetwork.etherSwitch.eth[1].mac packetDropNotAddressedToUs:sum(packetBytes) 0
attr interpolationmode none
attr source packetDropReasonIsNotAddressedToUs(packetDropped)
attr title "packet drop: not addressed to us, sum(packetBytes)"
scalar TestWirelessAndWiredNetwork.etherSwitch.eth[1].mac backoffSlotsGenerated:count 0
attr interpolationmode none
attr title "backoff, count"
scalar TestWirelessAndWiredNetwork.etherSwitch.eth[1].mac collision:count 0
attr interpolationmode none
attr title "collision, count"
scalar TestWirelessAndWiredNetwork.etherSwitch.eth[1].mac rxPausePkUnits:count 0
attr interpolationmode none
attr title "pause units received, count"
scalar TestWirelessAndWiredNetwork.etherSwitch.eth[1].mac rxPausePkUnits:sum 0
attr interpolationmode none
attr title "pause units received, sum"
scalar TestWirelessAndWiredNetwork.etherSwitch.eth[1].mac txPausePkUnits:count 0
attr interpolationmode none
attr title "pause units sent, count"
scalar TestWirelessAndWiredNetwork.etherSwitch.eth[1].mac txPausePkUnits:sum 0
attr interpolationmode none
attr title "pause units sent, sum"
scalar TestWirelessAndWiredNetwork.etherSwitch.eth[1].mac rxPkOk:count 3
attr interpolationmode none
attr source rxPkOk
attr title "packets received OK, count"
scalar TestWirelessAndWiredNetwork.etherSwitch.eth[1].mac rxPkOk:sum(packetBytes) 268
attr interpolationmode none
attr source rxPkOk
attr title "packets received OK, sum(packetBytes)"
scalar TestWirelessAndWiredNetwork.etherSwitch.eth[2].mac.queue packetPopped:count 3
attr interpolationmode none
attr title "packet popped, count"
scalar TestWirelessAndWiredNetwork.etherSwitch.eth[2].mac.queue packetPopped:sum(packetBytes) 230
attr interpolationmode none
attr title "packet popped, sum(packetBytes)"
statistic TestWirelessAndWiredNetwork.etherSwitch.eth[2].mac.queue queueingTime:histogram
field count 3
field mean 1.4537433333333e-007
field stddev 2.5179573144979e-007
field min 0
field max 4.36123e-007
field sum 4.36123e-007
field sqrsum 1.90203271129e-013
attr interpolationmode none
attr source queueingTime(packetPopped)
attr title "queueing times, histogram"
attr unit s
bin	-inf	0
bin	0	2
bin	1e-008	0
bin	2e-008	0
bin	3e-008	0
bin	4e-008	0
bin	5e-008	0
bin	6e-008	0
bin	7e-008	0
bin	8e-008	0
bin	9e-008	0
bin	1e-007	0
bin	1.1e-007	0
bin	1.2e-007	0
bin	1.3e-007	0
bin	1.4e-007	0
bin	1.5e-007	0
bin	1.6e-007	0
bin	1.7e-007	0
bin	1.8e-007	0
bin	1.9e-007	0
bin	2e-007	0
bin	2.1e-007	0
bin	2.2e-007	0
bin	2.3e-007	0
bin	2.4e-007	0
bin	2.5e-007	0
bin	2.6e-007	0
bin	2.7e-007	0
bin	2.8e-007	0
bin	2.9e-007	0
bin	3e-007	0
bin	3.1e-007	0
bin	3.2e-007	0
bin	3.3e-007	0
bin	3.4e-007	0
bin	3.5e-007	0
bin	3.6e-007	0
bin	3.7e-007	0
bin	3.8e-007	0
bin	3.9e-007	0
bin	4e-007	0
bin	4.1e-007	0
bin	4.2e-007	0
bin	4.3e-007	1
bin	4.4e-007	0
bin	4.5e-007	0
bin	4.6e-007	0
bin	4.7e-007	0
bin	4.8e-007	0
bin	4.9e-007	0
bin	5e-007	0
bin	5.1e-007	0
bin	5.2e-007	0
bin	5.3e-007	0
bin	5.4e-007	0
bin	5.5e-007	0
scalar TestWirelessAndWiredNetwork.etherSwitch.eth[2].mac.queue queueLength:max 1
attr interpolationmode sample-hold
attr source "count(packetPushed) - count(packetPopped) - count(packetRemoved) - count(packetDropped)"
attr title "queue length, max"
scalar TestWirelessAndWiredNetwork.etherSwitch.eth[2].mac.queue queueLength:timeavg 0.00019282853461413
attr interpolationmode sample-hold
attr source "count(packetPushed) - count(packetPopped) - count(packetRemoved) - count(packetDropped)"
attr title "queue length, timeavg"
scalar TestWirelessAndWiredNetwork.etherSwitch.eth[2].mac.queue packetPushed:count 3
attr interpolationmode none
attr title "packet pushed, count"
scalar TestWirelessAndWiredNetwork.etherSwitch.eth[2].mac.queue packetPushed:sum(packetBytes) 230
attr interpolationmode none
attr title "packet pushed, sum(packetBytes)"
scalar TestWirelessAndWiredNetwork.etherSwitch.eth[2].mac.queue packetDropQueueOverflow:count 0
attr interpolationmode none
attr source packetDropReasonIsQueueOverflow(packetDropped)
attr title "packet drops: queue overflow, count"
scalar TestWirelessAndWiredNetwork.etherSwitch.eth[2].mac.queue packetDropQueueOverflow:sum(packetBytes) 0
attr interpolationmode none
attr source packetDropReasonIsQueueOverflow(packetDropped)
attr title "packet drops: queue overflow, sum(packetBytes)"
scalar TestWirelessAndWiredNetwork.etherSwitch.eth[2].mac.queue packetRemoved:count 0
attr interpolationmode none
attr title "packets removed, count"
scalar TestWirelessAndWiredNetwork.etherSwitch.eth[2].mac.queue packetRemoved:sum(packetBytes) 0
attr interpolationmode none
attr title "packets removed, sum(packetBytes)"
scalar TestWirelessAndWiredNetwork.etherSwitch.eth[2].mac "simulated time" 5.002306090211
scalar TestWirelessAndWiredNetwork.etherSwitch.eth[2].mac full-duplex 1
scalar TestWirelessAndWiredNetwork.etherSwitch.eth[2].mac "frames/sec sent" 0.59972339674909
scalar TestWirelessAndWiredNetwork.etherSwitch.eth[2].mac "frames/sec rcvd" 0.59972339674909
scalar TestWirelessAndWiredNetwork.etherSwitch.eth[2].mac "bits/sec sent" 367.83035000611
scalar TestWirelessAndWiredNetwork.etherSwitch.eth[2].mac "bits/sec rcvd" 428.60232087668
scalar TestWirelessAndWiredNetwork.etherSwitch.eth[2].mac "rx channel idle (%)" 99.999533015382
scalar TestWirelessAndWiredNetwork.etherSwitch.eth[2].mac "rx channel utilization (%)" 0.00046698461826862
scalar TestWirelessAndWiredNetwork.etherSwitch.eth[2].mac "rx channel collision (%)" 0
scalar TestWirelessAndWiredNetwork.etherSwitch.eth[2].mac collisions 0
scalar TestWirelessAndWiredNetwork.etherSwitch.eth[2].mac backoffs 0
scalar TestWirelessAndWiredNetwork.etherSwitch.eth[2].mac txPk:count 3
attr interpolationmode none
attr source packetSentToLower
attr title "packets transmitted, count"
scalar TestWirelessAndWiredNetwork.etherSwitch.eth[2].mac txPk:sum(packetBytes) 230
attr interpolationmode none
attr source packetSentToLower
attr title "packets transmitted, sum(packetBytes)"
scalar TestWirelessAndWiredNetwork.etherSwitch.eth[2].mac packetReceivedFromUpper:count 3
attr interpolationmode none
attr source packetReceivedFromUpper
attr title "packet bytes from higher layer, count"
scalar TestWirelessAndWiredNetwork.etherSwitch.eth[2].mac packetReceivedFromUpper:sum(packetBytes) 230
attr interpolationmode none
attr source packetReceivedFromUpper
attr title "packet bytes from higher layer, sum(packetBytes)"
scalar TestWirelessAndWiredNetwork.etherSwitch.eth[2].mac passedUpPk:count 3
attr interpolationmode none
attr source packetSentToUpper
attr title "packets passed to higher layer, count"
scalar TestWirelessAndWiredNetwork.etherSwitch.eth[2].mac passedUpPk:sum(packetBytes) 268
attr interpolationmode none
attr source packetSentToUpper
attr title "packets passed to higher layer, sum(packetBytes)"
scalar TestWirelessAndWiredNetwork.etherSwitch.eth[2].mac packetDropIncorrectlyReceived:count 0
attr interpolationmode none
attr source packetDropReasonIsIncorrectlyReceived(packetDropped)
attr title "packet drop: incorrectly received, count"
scalar TestWirelessAndWiredNetwork.etherSwitch.eth[2].mac packetDropIncorrectlyReceived:sum(packetBytes) 0
attr interpolationmode none
attr source packetDropReasonIsIncorrectlyReceived(packetDropped)
attr title "packet drop: incorrectly received, sum(packetBytes)"
scalar TestWirelessAndWiredNetwork.etherSwitch.eth[2].mac packetDropInterfaceDown:count 0
attr interpolationmode none
attr source packetDropReasonIsInterfaceDown(packetDropped)
attr title "packet drop: interface down, count"
scalar TestWirelessAndWiredNetwork.etherSwitch.eth[2].mac packetDropInterfaceDown:sum(packetBytes) 0
attr interpolationmode none
attr source packetDropReasonIsInterfaceDown(packetDropped)
attr title "packet drop: interface down, sum(packetBytes)"
scalar TestWirelessAndWiredNetwork.etherSwitch.eth[2].mac packetDropNotAddressedToUs:count 0
attr interpolationmode none
attr source packetDropReasonIsNotAddressedToUs(packetDropped)
attr title "packet drop: not addressed to us, count"
scalar TestWirelessAndWiredNetwork.etherSwitch.eth[2].mac packetDropNotAddressedToUs:sum(packetBytes) 0
attr interpolationmode none
attr source packetDropReasonIsNotAddressedToUs(packetDropped)
attr title "packet drop: not addressed to us, sum(packetBytes)"
scalar TestWirelessAndWiredNetwork.etherSwitch.eth[2].mac backoffSlotsGenerated:count 0
attr interpolationmode none
attr title "backoff, count"
scalar TestWirelessAndWiredNetwork.etherSwitch.eth[2].mac collision:count 0
attr interpolationmode none
attr title "collision, count"
scalar TestWirelessAndWiredNetwork.etherSwitch.eth[2].mac rxPausePkUnits:count 0
attr interpolationmode none
attr title "pause units received, count"
scalar TestWirelessAndWiredNetwork.etherSwitch.eth[2].mac rxPausePkUnits:sum 0
attr interpolationmode none
attr title "pause units received, sum"
scalar TestWirelessAndWiredNetwork.etherSwitch.eth[2].mac txPausePkUnits:count 0
attr interpolationmode none
attr title "pause units sent, count"
scalar TestWirelessAndWiredNetwork.etherSwitch.eth[2].mac txPausePkUnits:sum 0
attr interpolationmode none
attr title "pause units sent, sum"
scalar TestWirelessAndWiredNetwork.etherSwitch.eth[2].mac rxPkOk:count 3
attr interpolationmode none
attr source rxPkOk
attr title "packets received OK, count"
scalar TestWirelessAndWiredNetwork.etherSwitch.eth[2].mac rxPkOk:sum(packetBytes) 268
attr interpolationmode none
attr source rxPkOk
attr title "packets received OK, sum(packetBytes)"
scalar TestWirelessAndWiredNetwork.etherSwitch.encap pauseSent:count 0
attr title "pause sent, count"
scalar TestWirelessAndWiredNetwork.etherSwitch.encap pauseSent:sum 0
attr title "pause sent, sum"
scalar TestWirelessAndWiredNetwork.etherSwitch.encap decapPk:count 0
attr interpolationmode none
attr source decapPk
attr title "packets decapsulated, count"
scalar TestWirelessAndWiredNetwork.etherSwitch.encap decapPk:sum(packetBytes) 0
attr interpolationmode none
attr source decapPk
attr title "packets decapsulated, sum(packetBytes)"
scalar TestWirelessAndWiredNetwork.etherSwitch.encap encapPk:count 0
attr interpolationmode none
attr source encapPk
attr title "packets encapsulated, count"
scalar TestWirelessAndWiredNetwork.etherSwitch.encap encapPk:sum(packetBytes) 0
attr interpolationmode none
attr source encapPk
attr title "packets encapsulated, sum(packetBytes)"
scalar TestWirelessAndWiredNetwork.router.lo[0].lo rcvdPkFromHl:count 0
attr interpolationmode none
attr source packetReceivedFromUpper
attr title "packets received from higher layer, count"
scalar TestWirelessAndWiredNetwork.router.lo[0].lo rcvdPkFromHl:sum(packetBytes) 0
attr interpolationmode none
attr source packetReceivedFromUpper
attr title "packets received from higher layer, sum(packetBytes)"
scalar TestWirelessAndWiredNetwork.router.lo[0].lo passedUpPk:count 0
attr interpolationmode none
attr source packetSentToUpper
attr title "packets passed to higher layer, count"
scalar TestWirelessAndWiredNetwork.router.lo[0].lo passedUpPk:sum(packetBytes) 0
attr interpolationmode none
attr source packetSentToUpper
attr title "packets passed to higher layer, sum(packetBytes)"
scalar TestWirelessAndWiredNetwork.router.eth[0].mac.queue packetPopped:count 7
attr interpolationmode none
attr title "packet popped, count"
scalar TestWirelessAndWiredNetwork.router.eth[0].mac.queue packetPopped:sum(packetBytes) 600
attr interpolationmode none
attr title "packet popped, sum(packetBytes)"
statistic TestWirelessAndWiredNetwork.router.eth[0].mac.queue queueingTime:histogram
field count 7
field mean 2.1920151428571e-006
field stddev 3.9328811981725e-006
field min 0
field max 9.76e-006
field sum 1.5344106e-005
field sqrsum 1.2643983981924e-010
attr interpolationmode none
attr source queueingTime(packetPopped)
attr title "queueing times, histogram"
attr unit s
bin	-inf	0
bin	0	5
bin	2e-007	0
bin	4e-007	0
bin	6e-007	0
bin	8e-007	0
bin	1e-006	0
bin	1.2e-006	0
bin	1.4e-006	0
bin	1.6e-006	0
bin	1.8e-006	0
bin	2e-006	0
bin	2.2e-006	0
bin	2.4e-006	0
bin	2.6e-006	0
bin	2.8e-006	0
bin	3e-006	0
bin	3.2e-006	0
bin	3.4e-006	0
bin	3.6e-006	0
bin	3.8e-006	0
bin	4e-006	0
bin	4.2e-006	0
bin	4.4e-006	0
bin	4.6e-006	0
bin	4.8e-006	0
bin	5e-006	0
bin	5.2e-006	0
bin	5.4e-006	1
bin	5.6e-006	0
bin	5.8e-006	0
bin	6e-006	0
bin	6.2e-006	0
bin	6.4e-006	0
bin	6.6e-006	0
bin	6.8e-006	0
bin	7e-006	0
bin	7.2e-006	0
bin	7.4e-006	0
bin	7.6e-006	0
bin	7.8e-006	0
bin	8e-006	0
bin	8.2e-006	0
bin	8.4e-006	0
bin	8.6e-006	0
bin	8.8e-006	0
bin	9e-006	0
bin	9.2e-006	0
bin	9.4e-006	0
bin	9.6e-006	1
bin	9.8e-006	0
bin	1e-005	0
bin	1.02e-005	0
bin	1.04e-005	0
bin	1.06e-005	0
bin	1.08e-005	0
bin	1.1e-005	0
bin	1.12e-005	0
bin	1.14e-005	0
bin	1.16e-005	0
bin	1.18e-005	0
bin	1.2e-005	0
bin	1.22e-005	0
scalar TestWirelessAndWiredNetwork.router.eth[0].mac.queue queueLength:max 1
attr interpolationmode sample-hold
attr source "count(packetPushed) - count(packetPopped) - count(packetRemoved) - count(packetDropped)"
attr title "queue length, max"
scalar TestWirelessAndWiredNetwork.router.eth[0].mac.queue queueLength:timeavg 0.006855543940474
attr interpolationmode sample-hold
attr source "count(packetPushed) - count(packetPopped) - count(packetRemoved) - count(packetDropped)"
attr title "queue length, timeavg"
scalar TestWirelessAndWiredNetwork.router.eth[0].mac.queue packetPushed:count 7
attr interpolationmode none
attr title "packet pushed, count"
scalar TestWirelessAndWiredNetwork.router.eth[0].mac.queue packetPushed:sum(packetBytes) 600
attr interpolationmode none
attr title "packet pushed, sum(packetBytes)"
scalar TestWirelessAndWiredNetwork.router.eth[0].mac.queue packetDropQueueOverflow:count 0
attr interpolationmode none
attr source packetDropReasonIsQueueOverflow(packetDropped)
attr title "packet drops: queue overflow, count"
scalar TestWirelessAndWiredNetwork.router.eth[0].mac.queue packetDropQueueOverflow:sum(packetBytes) 0
attr interpolationmode none
attr source packetDropReasonIsQueueOverflow(packetDropped)
attr title "packet drops: queue overflow, sum(packetBytes)"
scalar TestWirelessAndWiredNetwork.router.eth[0].mac.queue packetRemoved:count 0
attr interpolationmode none
attr title "packets removed, count"
scalar TestWirelessAndWiredNetwork.router.eth[0].mac.queue packetRemoved:sum(packetBytes) 0
attr interpolationmode none
attr title "packets removed, sum(packetBytes)"
scalar TestWirelessAndWiredNetwork.router.eth[0].mac "simulated time" 5.002306090211
scalar TestWirelessAndWiredNetwork.router.eth[0].mac full-duplex 1
scalar TestWirelessAndWiredNetwork.router.eth[0].mac "frames/sec sent" 1.3993545924145
scalar TestWirelessAndWiredNetwork.router.eth[0].mac "frames/sec rcvd" 0.79963119566545
scalar TestWirelessAndWiredNetwork.router.eth[0].mac "bits/sec sent" 959.55743479854
scalar TestWirelessAndWiredNetwork.router.eth[0].mac "bits/sec rcvd" 530.95511392186
scalar TestWirelessAndWiredNetwork.router.eth[0].mac "rx channel idle (%)" 100
scalar TestWirelessAndWiredNetwork.router.eth[0].mac "rx channel utilization (%)" 0
scalar TestWirelessAndWiredNetwork.router.eth[0].mac txPk:count 7
attr interpolationmode none
attr source packetSentToLower
attr title "packets transmitted, count"
scalar TestWirelessAndWiredNetwork.router.eth[0].mac txPk:sum(packetBytes) 600
attr interpolationmode none
attr source packetSentToLower
attr title "packets transmitted, sum(packetBytes)"
scalar TestWirelessAndWiredNetwork.router.eth[0].mac packetReceivedFromUpper:count 7
attr interpolationmode none
attr source packetReceivedFromUpper
attr title "packet bytes from higher layer, count"
scalar TestWirelessAndWiredNetwork.router.eth[0].mac packetReceivedFromUpper:sum(packetBytes) 546
attr interpolationmode none
attr source packetReceivedFromUpper
attr title "packet bytes from higher layer, sum(packetBytes)"
scalar TestWirelessAndWiredNetwork.router.eth[0].mac passedUpPk:count 4
attr interpolationmode none
attr source packetSentToUpper
attr title "packets passed to higher layer, count"
scalar TestWirelessAndWiredNetwork.router.eth[0].mac passedUpPk:sum(packetBytes) 332
attr interpolationmode none
attr source packetSentToUpper
attr title "packets passed to higher layer, sum(packetBytes)"
scalar TestWirelessAndWiredNetwork.router.eth[0].mac packetDropIncorrectlyReceived:count 0
attr interpolationmode none
attr source packetDropReasonIsIncorrectlyReceived(packetDropped)
attr title "packet drop: incorrectly received, count"
scalar TestWirelessAndWiredNetwork.router.eth[0].mac packetDropIncorrectlyReceived:sum(packetBytes) 0
attr interpolationmode none
attr source packetDropReasonIsIncorrectlyReceived(packetDropped)
attr title "packet drop: incorrectly received, sum(packetBytes)"
scalar TestWirelessAndWiredNetwork.router.eth[0].mac packetDropInterfaceDown:count 0
attr interpolationmode none
attr source packetDropReasonIsInterfaceDown(packetDropped)
attr title "packet drop: interface down, count"
scalar TestWirelessAndWiredNetwork.router.eth[0].mac packetDropInterfaceDown:sum(packetBytes) 0
attr interpolationmode none
attr source packetDropReasonIsInterfaceDown(packetDropped)
attr title "packet drop: interface down, sum(packetBytes)"
scalar TestWirelessAndWiredNetwork.router.eth[0].mac packetDropNotAddressedToUs:count 0
attr interpolationmode none
attr source packetDropReasonIsNotAddressedToUs(packetDropped)
attr title "packet drop: not addressed to us, count"
scalar TestWirelessAndWiredNetwork.router.eth[0].mac packetDropNotAddressedToUs:sum(packetBytes) 0
attr interpolationmode none
attr source packetDropReasonIsNotAddressedToUs(packetDropped)
attr title "packet drop: not addressed to us, sum(packetBytes)"
scalar TestWirelessAndWiredNetwork.router.eth[0].mac rxPausePkUnits:count 0
attr interpolationmode none
attr title "pause units received, count"
scalar TestWirelessAndWiredNetwork.router.eth[0].mac rxPausePkUnits:sum 0
attr interpolationmode none
attr title "pause units received, sum"
scalar TestWirelessAndWiredNetwork.router.eth[0].mac txPausePkUnits:count 0
attr interpolationmode none
attr title "pause units sent, count"
scalar TestWirelessAndWiredNetwork.router.eth[0].mac txPausePkUnits:sum 0
attr interpolationmode none
attr title "pause units sent, sum"
scalar TestWirelessAndWiredNetwork.router.eth[0].mac rxPkOk:count 4
attr interpolationmode none
attr source rxPkOk
attr title "packets received OK, count"
scalar TestWirelessAndWiredNetwork.router.eth[0].mac rxPkOk:sum(packetBytes) 332
attr interpolationmode none
attr source rxPkOk
attr title "packets received OK, sum(packetBytes)"
scalar TestWirelessAndWiredNetwork.router.eth[0].encap pauseSent:count 0
attr title "pause sent, count"
scalar TestWirelessAndWiredNetwork.router.eth[0].encap pauseSent:sum 0
attr title "pause sent, sum"
scalar TestWirelessAndWiredNetwork.router.eth[0].encap decapPk:count 4
attr interpolationmode none
attr source decapPk
attr title "packets decapsulated, count"
scalar TestWirelessAndWiredNetwork.router.eth[0].encap decapPk:sum(packetBytes) 260
attr interpolationmode none
attr source decapPk
attr title "packets decapsulated, sum(packetBytes)"
scalar TestWirelessAndWiredNetwork.router.eth[0].encap encapPk:count 7
attr interpolationmode none
attr source encapPk
attr title "packets encapsulated, count"
scalar TestWirelessAndWiredNetwork.router.eth[0].encap encapPk:sum(packetBytes) 420
attr interpolationmode none
attr source encapPk
attr title "packets encapsulated, sum(packetBytes)"
scalar TestWirelessAndWiredNetwork.router.eth[1].mac.queue packetPopped:count 4
attr interpolationmode none
attr title "packet popped, count"
scalar TestWirelessAndWiredNetwork.router.eth[1].mac.queue packetPopped:sum(packetBytes) 332
attr interpolationmode none
attr title "packet popped, sum(packetBytes)"
statistic TestWirelessAndWiredNetwork.router.eth[1].mac.queue queueingTime:histogram
field count 4
field mean 0
field stddev 0
field min 0
field max 0
field sum 0
field sqrsum 0
attr interpolationmode none
attr source queueingTime(packetPopped)
attr title "queueing times, histogram"
attr unit s
bin	-inf	0
bin	-0.5	0
bin	-0.48	0
bin	-0.46	0
bin	-0.44	0
bin	-0.42	0
bin	-0.4	0
bin	-0.38	0
bin	-0.36	0
bin	-0.34	0
bin	-0.32	0
bin	-0.3	0
bin	-0.28	0
bin	-0.26	0
bin	-0.24	0
bin	-0.22	0
bin	-0.2	0
bin	-0.18	0
bin	-0.16	0
bin	-0.14	0
bin	-0.12	0
bin	-0.1	0
bin	-0.08	0
bin	-0.06	0
bin	-0.04	0
bin	-0.02	0
bin	0	4
bin	0.02	0
bin	0.04	0
bin	0.06	0
bin	0.08	0
bin	0.1	0
bin	0.12	0
bin	0.14	0
bin	0.16	0
bin	0.18	0
bin	0.2	0
bin	0.22	0
bin	0.24	0
bin	0.26	0
bin	0.28	0
bin	0.3	0
bin	0.32	0
bin	0.34	0
bin	0.36	0
bin	0.38	0
bin	0.4	0
bin	0.42	0
bin	0.44	0
bin	0.46	0
bin	0.48	0
bin	0.5	0
scalar TestWirelessAndWiredNetwork.router.eth[1].mac.queue queueLength:max 1
attr interpolationmode sample-hold
attr source "count(packetPushed) - count(packetPopped) - count(packetRemoved) - count(packetDropped)"
attr title "queue length, max"
scalar TestWirelessAndWiredNetwork.router.eth[1].mac.queue queueLength:timeavg 0
attr interpolationmode sample-hold
attr source "count(packetPushed) - count(packetPopped) - count(packetRemoved) - count(packetDropped)"
attr title "queue length, timeavg"
scalar TestWirelessAndWiredNetwork.router.eth[1].mac.queue packetPushed:count 4
attr interpolationmode none
attr title "packet pushed, count"
scalar TestWirelessAndWiredNetwork.router.eth[1].mac.queue packetPushed:sum(packetBytes) 332
attr interpolationmode none
attr title "packet pushed, sum(packetBytes)"
scalar TestWirelessAndWiredNetwork.router.eth[1].mac.queue packetDropQueueOverflow:count 0
attr interpolationmode none
attr source packetDropReasonIsQueueOverflow(packetDropped)
attr title "packet drops: queue overflow, count"
scalar TestWirelessAndWiredNetwork.router.eth[1].mac.queue packetDropQueueOverflow:sum(packetBytes) 0
attr interpolationmode none
attr source packetDropReasonIsQueueOverflow(packetDropped)
attr title "packet drops: queue overflow, sum(packetBytes)"
scalar TestWirelessAndWiredNetwork.router.eth[1].mac.queue packetRemoved:count 0
attr interpolationmode none
attr title "packets removed, count"
scalar TestWirelessAndWiredNetwork.router.eth[1].mac.queue packetRemoved:sum(packetBytes) 0
attr interpolationmode none
attr title "packets removed, sum(packetBytes)"
scalar TestWirelessAndWiredNetwork.router.eth[1].mac "simulated time" 5.002306090211
scalar TestWirelessAndWiredNetwork.router.eth[1].mac full-duplex 1
scalar TestWirelessAndWiredNetwork.router.eth[1].mac "frames/sec sent" 0.79963119566545
scalar TestWirelessAndWiredNetwork.router.eth[1].mac "frames/sec rcvd" 1.1994467934982
scalar TestWirelessAndWiredNetwork.router.eth[1].mac "bits/sec sent" 530.95511392186
scalar TestWirelessAndWiredNetwork.router.eth[1].mac "bits/sec rcvd" 857.20464175337
scalar TestWirelessAndWiredNetwork.router.eth[1].mac "rx channel idle (%)" 100
scalar TestWirelessAndWiredNetwork.router.eth[1].mac "rx channel utilization (%)" 0
scalar TestWirelessAndWiredNetwork.router.eth[1].mac txPk:count 4
attr interpolationmode none
attr source packetSentToLower
attr title "packets transmitted, count"
scalar TestWirelessAndWiredNetwork.router.eth[1].mac txPk:sum(packetBytes) 332
attr interpolationmode none
attr source packetSentToLower
attr title "packets transmitted, sum(packetBytes)"
scalar TestWirelessAndWiredNetwork.router.eth[1].mac packetReceivedFromUpper:count 4
attr interpolationmode none
attr source packetReceivedFromUpper
attr title "packet bytes from higher layer, count"
scalar TestWirelessAndWiredNetwork.router.eth[1].mac packetReceivedFromUpper:sum(packetBytes) 296
attr interpolationmode none
attr source packetReceivedFromUpper
attr title "packet bytes from higher layer, sum(packetBytes)"
scalar TestWirelessAndWiredNetwork.router.eth[1].mac passedUpPk:count 6
attr interpolationmode none
attr source packetSentToUpper
attr title "packets passed to higher layer, count"
scalar TestWirelessAndWiredNetwork.router.eth[1].mac passedUpPk:sum(packetBytes) 536
attr interpolationmode none
attr source packetSentToUpper
attr title "packets passed to higher layer, sum(packetBytes)"
scalar TestWirelessAndWiredNetwork.router.eth[1].mac packetDropIncorrectlyReceived:count 0
attr interpolationmode none
attr source packetDropReasonIsIncorrectlyReceived(packetDropped)
attr title "packet drop: incorrectly received, count"
scalar TestWirelessAndWiredNetwork.router.eth[1].mac packetDropIncorrectlyReceived:sum(packetBytes) 0
attr interpolationmode none
attr source packetDropReasonIsIncorrectlyReceived(packetDropped)
attr title "packet drop: incorrectly received, sum(packetBytes)"
scalar TestWirelessAndWiredNetwork.router.eth[1].mac packetDropInterfaceDown:count 0
attr interpolationmode none
attr source packetDropReasonIsInterfaceDown(packetDropped)
attr title "packet drop: interface down, count"
scalar TestWirelessAndWiredNetwork.router.eth[1].mac packetDropInterfaceDown:sum(packetBytes) 0
attr interpolationmode none
attr source packetDropReasonIsInterfaceDown(packetDropped)
attr title "packet drop: interface down, sum(packetBytes)"
scalar TestWirelessAndWiredNetwork.router.eth[1].mac packetDropNotAddressedToUs:count 0
attr interpolationmode none
attr source packetDropReasonIsNotAddressedToUs(packetDropped)
attr title "packet drop: not addressed to us, count"
scalar TestWirelessAndWiredNetwork.router.eth[1].mac packetDropNotAddressedToUs:sum(packetBytes) 0
attr interpolationmode none
attr source packetDropReasonIsNotAddressedToUs(packetDropped)
attr title "packet drop: not addressed to us, sum(packetBytes)"
scalar TestWirelessAndWiredNetwork.router.eth[1].mac rxPausePkUnits:count 0
attr interpolationmode none
attr title "pause units received, count"
scalar TestWirelessAndWiredNetwork.router.eth[1].mac rxPausePkUnits:sum 0
attr interpolationmode none
attr title "pause units received, sum"
scalar TestWirelessAndWiredNetwork.router.eth[1].mac txPausePkUnits:count 0
attr interpolationmode none
attr title "pause units sent, count"
scalar TestWirelessAndWiredNetwork.router.eth[1].mac txPausePkUnits:sum 0
attr interpolationmode none
attr title "pause units sent, sum"
scalar TestWirelessAndWiredNetwork.router.eth[1].mac rxPkOk:count 6
attr interpolationmode none
attr source rxPkOk
attr title "packets received OK, count"
scalar TestWirelessAndWiredNetwork.router.eth[1].mac rxPkOk:sum(packetBytes) 536
attr interpolationmode none
attr source rxPkOk
attr title "packets received OK, sum(packetBytes)"
scalar TestWirelessAndWiredNetwork.router.eth[1].encap pauseSent:count 0
attr title "pause sent, count"
scalar TestWirelessAndWiredNetwork.router.eth[1].encap pauseSent:sum 0
attr title "pause sent, sum"
scalar TestWirelessAndWiredNetwork.router.eth[1].encap decapPk:count 6
attr interpolationmode none
attr source decapPk
attr title "packets decapsulated, count"
scalar TestWirelessAndWiredNetwork.router.eth[1].encap decapPk:sum(packetBytes) 428
attr interpolationmode none
attr source decapPk
attr title "packets decapsulated, sum(packetBytes)"
scalar TestWirelessAndWiredNetwork.router.eth[1].encap encapPk:count 4
attr interpolationmode none
attr source encapPk
attr title "packets encapsulated, count"
scalar TestWirelessAndWiredNetwork.router.eth[1].encap encapPk:sum(packetBytes) 224
attr interpolationmode none
attr source encapPk
attr title "packets encapsulated, sum(packetBytes)"
scalar TestWirelessAndWiredNetwork.router.ipv4.ip packetDropAddressResolutionFailed:count 0
attr interpolationmode none
attr source packetDropReasonIsAddressResolutionFailed(packetDropped)
attr title "packet drop: address resolution failed, count"
scalar TestWirelessAndWiredNetwork.router.ipv4.ip packetDropAddressResolutionFailed:sum(packetBytes) 0
attr interpolationmode none
attr source packetDropReasonIsAddressResolutionFailed(packetDropped)
attr title "packet drop: address resolution failed, sum(packetBytes)"
scalar TestWirelessAndWiredNetwork.router.ipv4.ip packetDropHopLimitReached:count 0
attr interpolationmode none
attr source packetDropReasonIsHopLimitReached(packetDropped)
attr title "packet drop: hop limit reached, count"
scalar TestWirelessAndWiredNetwork.router.ipv4.ip packetDropHopLimitReached:sum(packetBytes) 0
attr interpolationmode none
attr source packetDropReasonIsHopLimitReached(packetDropped)
attr title "packet drop: hop limit reached, sum(packetBytes)"
scalar TestWirelessAndWiredNetwork.router.ipv4.ip packetDropForwardingDisabled:count 0
attr interpolationmode none
attr source packetDropReasonIsForwardingDisabled(packetDropped)
attr title "packet drop: forwarding disabled, count"
scalar TestWirelessAndWiredNetwork.router.ipv4.ip packetDropForwardingDisabled:sum(packetBytes) 0
attr interpolationmode none
attr source packetDropReasonIsForwardingDisabled(packetDropped)
attr title "packet drop: forwarding disabled, sum(packetBytes)"
scalar TestWirelessAndWiredNetwork.router.ipv4.ip packetDropNoInterfaceFound:count 0
attr interpolationmode none
attr source packetDropReasonIsNoInterfaceFound(packetDropped)
attr title "packet drop: no interface found, count"
scalar TestWirelessAndWiredNetwork.router.ipv4.ip packetDropNoInterfaceFound:sum(packetBytes) 0
attr interpolationmode none
attr source packetDropReasonIsNoInterfaceFound(packetDropped)
attr title "packet drop: no interface found, sum(packetBytes)"
scalar TestWirelessAndWiredNetwork.router.ipv4.ip packetDropNoRouteFound:count 0
attr interpolationmode none
attr source packetDropReasonIsNoRouteFound(packetDropped)
attr title "packet drop: no route found, count"
scalar TestWirelessAndWiredNetwork.router.ipv4.ip packetDropNoRouteFound:sum(packetBytes) 0
attr interpolationmode none
attr source packetDropReasonIsNoRouteFound(packetDropped)
attr title "packet drop: no route found, sum(packetBytes)"
scalar TestWirelessAndWiredNetwork.router.ipv4.ip packetDropUndefined:count 0
attr interpolationmode none
attr source packetDropReasonIsUndefined(packetDropped)
attr title "packet drop: undefined, count"
scalar TestWirelessAndWiredNetwork.router.ipv4.ip packetDropUndefined:sum(packetBytes) 0
attr interpolationmode none
attr source packetDropReasonIsUndefined(packetDropped)
attr title "packet drop: undefined, sum(packetBytes)"
scalar TestWirelessAndWiredNetwork.router.ipv4.arp arpReplySent:count 4
attr source arpReplySent
attr title "ARP replies sent, count"
scalar TestWirelessAndWiredNetwork.router.ipv4.arp arpReplySent:sum(packetBytes) 112
attr source arpReplySent
attr title "ARP replies sent, sum(packetBytes)"
scalar TestWirelessAndWiredNetwork.router.ipv4.arp arpRequestSent:count 1
attr source arpRequestSent
attr title "ARP request sent, count"
scalar TestWirelessAndWiredNetwork.router.ipv4.arp arpRequestSent:sum(packetBytes) 28
attr source arpRequestSent
attr title "ARP request sent, sum(packetBytes)"
scalar TestWirelessAndWiredNetwork.router.ipv4.arp arpResolutionFailed:count 0
attr title "ARP failed resolutions, count"
scalar TestWirelessAndWiredNetwork.router.ipv4.arp arpResolutionCompleted:count 4
attr title "ARP completed resolutions, count"
scalar TestWirelessAndWiredNetwork.router.ipv4.arp arpResolutionInitiated:count 1
attr title "ARP initiated resolutions, count"
scalar TestWirelessAndWiredNetwork.wirelessHost1.lo[0].lo rcvdPkFromHl:count 0
attr interpolationmode none
attr source packetReceivedFromUpper
attr title "packets received from higher layer, count"
scalar TestWirelessAndWiredNetwork.wirelessHost1.lo[0].lo rcvdPkFromHl:sum(packetBytes) 0
attr interpolationmode none
attr source packetReceivedFromUpper
attr title "packets received from higher layer, sum(packetBytes)"
scalar TestWirelessAndWiredNetwork.wirelessHost1.lo[0].lo passedUpPk:count 0
attr interpolationmode none
attr source packetSentToUpper
attr title "packets passed to higher layer, count"
scalar TestWirelessAndWiredNetwork.wirelessHost1.lo[0].lo passedUpPk:sum(packetBytes) 0
attr interpolationmode none
attr source packetSentToUpper
attr title "packets passed to higher layer, sum(packetBytes)"
scalar TestWirelessAndWiredNetwork.wirelessHost1.wlan[0].agent dropConfirm:count 0
attr title "dropped confirms, count"
scalar TestWirelessAndWiredNetwork.wirelessHost1.wlan[0].agent acceptConfirm:count 3
attr title "accepted confirms, count"
scalar TestWirelessAndWiredNetwork.wirelessHost1.wlan[0].agent sentRequest:count 3
attr title "sent requests, count"
scalar TestWirelessAndWiredNetwork.wirelessHost1.wlan[0].mac.dcf.channelAccess.pendingQueue packetPopped:count 7
attr interpolationmode none
attr title "packet popped, count"
scalar TestWirelessAndWiredNetwork.wirelessHost1.wlan[0].mac.dcf.channelAccess.pendingQueue packetPopped:sum(packetBytes) 384
attr interpolationmode none
attr title "packet popped, sum(packetBytes)"
statistic TestWirelessAndWiredNetwork.wirelessHost1.wlan[0].mac.dcf.channelAccess.pendingQueue queueingTime:histogram
field count 7
field mean 0.00034730646785714
field stddev 0.00046027649268934
field min 0
field max 0.001276651043
field sum 0.002431145275
field sqrsum 2.1154791766423e-006
attr interpolationmode none
attr source queueingTime(packetPopped)
attr title "queueing times, histogram"
attr unit s
bin	-inf	0
bin	0	2
bin	2e-005	0
bin	4e-005	1
bin	6e-005	0
bin	8e-005	0
bin	0.0001	0
bin	0.00012	0
bin	0.00014	0
bin	0.00016	0
bin	0.00018	0
bin	0.0002	0
bin	0.00022	0
bin	0.00024	2
bin	0.00026	0
bin	0.00028	0
bin	0.0003	0
bin	0.00032	0
bin	0.00034	0
bin	0.00036	0
bin	0.00038	0
bin	0.0004	0
bin	0.00042	0
bin	0.00044	0
bin	0.00046	0
bin	0.00048	0
bin	0.0005	0
bin	0.00052	0
bin	0.00054	0
bin	0.00056	0
bin	0.00058	1
bin	0.0006	0
bin	0.00062	0
bin	0.00064	0
bin	0.00066	0
bin	0.00068	0
bin	0.0007	0
bin	0.00072	0
bin	0.00074	0
bin	0.00076	0
bin	0.00078	0
bin	0.0008	0
bin	0.00082	0
bin	0.00084	0
bin	0.00086	0
bin	0.00088	0
bin	0.0009	0
bin	0.00092	0
bin	0.00094	0
bin	0.00096	0
bin	0.00098	0
bin	0.001	0
bin	0.00102	0
bin	0.00104	0
bin	0.00106	0
bin	0.00108	0
bin	0.0011	0
bin	0.00112	0
bin	0.00114	0
bin	0.00116	0
bin	0.00118	0
bin	0.0012	0
bin	0.00122	0
bin	0.00124	0
bin	0.00126	1
bin	0.00128	0
bin	0.0013	0
bin	0.00132	0
bin	0.00134	0
bin	0.00136	0
bin	0.00138	0
bin	0.0014	0
bin	0.00142	0
bin	0.00144	0
bin	0.00146	0
bin	0.00148	0
bin	0.0015	0
bin	0.00152	0
bin	0.00154	0
bin	0.00156	0
bin	0.00158	0
bin	0.0016	0
scalar TestWirelessAndWiredNetwork.wirelessHost1.wlan[0].mac.dcf.channelAccess.pendingQueue queueLength:max 3
attr interpolationmode sample-hold
attr source "count(packetPushed) - count(packetPopped) - count(packetRemoved) - count(packetDropped)"
attr title "queue length, max"
scalar TestWirelessAndWiredNetwork.wirelessHost1.wlan[0].mac.dcf.channelAccess.pendingQueue queueLength:timeavg 0.00050511576705761
attr interpolationmode sample-hold
attr source "count(packetPushed) - count(packetPopped) - count(packetRemoved) - count(packetDropped)"
attr title "queue length, timeavg"
scalar TestWirelessAndWiredNetwork.wirelessHost1.wlan[0].mac.dcf.channelAccess.pendingQueue packetPushed:count 7
attr interpolationmode none
attr title "packet pushed, count"
scalar TestWirelessAndWiredNetwork.wirelessHost1.wlan[0].mac.dcf.channelAccess.pendingQueue packetPushed:sum(packetBytes) 384
attr interpolationmode none
attr title "packet pushed, sum(packetBytes)"
scalar TestWirelessAndWiredNetwork.wirelessHost1.wlan[0].mac.dcf.channelAccess.pendingQueue packetDropQueueOverflow:count 0
attr interpolationmode none
attr source packetDropReasonIsQueueOverflow(packetDropped)
attr title "packet drops: queue overflow, count"
scalar TestWirelessAndWiredNetwork.wirelessHost1.wlan[0].mac.dcf.channelAccess.pendingQueue packetDropQueueOverflow:sum(packetBytes) 0
attr interpolationmode none
attr source packetDropReasonIsQueueOverflow(packetDropped)
attr title "packet drops: queue overflow, sum(packetBytes)"
scalar TestWirelessAndWiredNetwork.wirelessHost1.wlan[0].mac.dcf.channelAccess.pendingQueue packetRemoved:count 0
attr interpolationmode none
attr title "packets removed, count"
scalar TestWirelessAndWiredNetwork.wirelessHost1.wlan[0].mac.dcf.channelAccess.pendingQueue packetRemoved:sum(packetBytes) 0
attr interpolationmode none
attr title "packets removed, sum(packetBytes)"
statistic TestWirelessAndWiredNetwork.wirelessHost1.wlan[0].mac.dcf.channelAccess.inProgressFrames queueingTime:histogram
field count 6
field mean 0.00028907631883333
field stddev 0.00051594629369303
field min 3.8e-005
field max 0.001341412417
field sum 0.001734457913
field sqrsum 1.8323935985393e-006
attr interpolationmode none
attr source queueingTime(packetDequeued)
attr title "queueing times, histogram"
bin	-inf	0
bin	0	0
bin	2e-005	1
bin	4e-005	0
bin	6e-005	0
bin	8e-005	4
bin	0.0001	0
bin	0.00012	0
bin	0.00014	0
bin	0.00016	0
bin	0.00018	0
bin	0.0002	0
bin	0.00022	0
bin	0.00024	0
bin	0.00026	0
bin	0.00028	0
bin	0.0003	0
bin	0.00032	0
bin	0.00034	0
bin	0.00036	0
bin	0.00038	0
bin	0.0004	0
bin	0.00042	0
bin	0.00044	0
bin	0.00046	0
bin	0.00048	0
bin	0.0005	0
bin	0.00052	0
bin	0.00054	0
bin	0.00056	0
bin	0.00058	0
bin	0.0006	0
bin	0.00062	0
bin	0.00064	0
bin	0.00066	0
bin	0.00068	0
bin	0.0007	0
bin	0.00072	0
bin	0.00074	0
bin	0.00076	0
bin	0.00078	0
bin	0.0008	0
bin	0.00082	0
bin	0.00084	0
bin	0.00086	0
bin	0.00088	0
bin	0.0009	0
bin	0.00092	0
bin	0.00094	0
bin	0.00096	0
bin	0.00098	0
bin	0.001	0
bin	0.00102	0
bin	0.00104	0
bin	0.00106	0
bin	0.00108	0
bin	0.0011	0
bin	0.00112	0
bin	0.00114	0
bin	0.00116	0
bin	0.00118	0
bin	0.0012	0
bin	0.00122	0
bin	0.00124	0
bin	0.00126	0
bin	0.00128	0
bin	0.0013	0
bin	0.00132	0
bin	0.00134	1
bin	0.00136	0
bin	0.00138	0
bin	0.0014	0
bin	0.00142	0
bin	0.00144	0
bin	0.00146	0
bin	0.00148	0
bin	0.0015	0
bin	0.00152	0
bin	0.00154	0
bin	0.00156	0
bin	0.00158	0
bin	0.0016	0
bin	0.00162	0
bin	0.00164	0
bin	0.00166	0
bin	0.00168	0
scalar TestWirelessAndWiredNetwork.wirelessHost1.wlan[0].mac.dcf.channelAccess.inProgressFrames queueLength:max 2
attr interpolationmode sample-hold
attr source "count(packetEnqueued) - count(packetDequeued)"
attr title "queue length, max"
scalar TestWirelessAndWiredNetwork.wirelessHost1.wlan[0].mac.dcf.channelAccess.inProgressFrames queueLength:timeavg 0.00052225396789622
attr interpolationmode sample-hold
attr source "count(packetEnqueued) - count(packetDequeued)"
attr title "queue length, timeavg"
scalar TestWirelessAndWiredNetwork.wirelessHost1.wlan[0].mac.dcf.channelAccess.contention stateChanged:count 402
attr interpolationmode none
attr title "contention state changed, count"
scalar TestWirelessAndWiredNetwork.wirelessHost1.wlan[0].mac.dcf.channelAccess.contention channelAccessGranted:count 7
attr title "channel access granted, count"
scalar TestWirelessAndWiredNetwork.wirelessHost1.wlan[0].mac.dcf.channelAccess channelOwnershipChanged:count 14
attr interpolationmode sample-hold
attr title "channel ownership, count"
scalar TestWirelessAndWiredNetwork.wirelessHost1.wlan[0].mac.dcf.originatorMacDataService packetAggregated:count 0
attr title "packets aggregated, count"
scalar TestWirelessAndWiredNetwork.wirelessHost1.wlan[0].mac.dcf.originatorMacDataService packetFragmented:count 0
attr title "packets fragmented, count"
scalar TestWirelessAndWiredNetwork.wirelessHost1.wlan[0].mac.dcf.recipientMacDataService packetDropDuplicateDetected:count 0
attr interpolationmode none
attr source packetDropReasonIsDuplicateDetected(packetDropped)
attr title "packet drops: duplicate detected, count"
scalar TestWirelessAndWiredNetwork.wirelessHost1.wlan[0].mac.dcf.recipientMacDataService packetDropDuplicateDetected:sum(packetBytes) 0
attr interpolationmode none
attr source packetDropReasonIsDuplicateDetected(packetDropped)
attr title "packet drops: duplicate detected, sum(packetBytes)"
scalar TestWirelessAndWiredNetwork.wirelessHost1.wlan[0].mac.dcf.recipientMacDataService packetDeaggregated:count 0
attr title "packets deaggregated, count"
scalar TestWirelessAndWiredNetwork.wirelessHost1.wlan[0].mac.dcf.recipientMacDataService packetDefragmented:count 57
attr title "packets defragmented, count"
scalar TestWirelessAndWiredNetwork.wirelessHost1.wlan[0].mac.dcf.recoveryProcedure retryLimitReached:count 0
attr title "retry limit reached, count"
scalar TestWirelessAndWiredNetwork.wirelessHost1.wlan[0].mac.dcf packetReceivedFromPeer:count 62
attr interpolationmode none
attr title "packets received, count"
scalar TestWirelessAndWiredNetwork.wirelessHost1.wlan[0].mac.dcf packetReceivedFromPeer:sum(packetBytes) 2800
attr interpolationmode none
attr title "packets received, sum(packetBytes)"
scalar TestWirelessAndWiredNetwork.wirelessHost1.wlan[0].mac.dcf packetReceivedFromPeerUnicast:count 9
attr interpolationmode none
attr source ieee80211Unicast(packetReceivedFromPeer)
attr title "packets received: unicast, count"
scalar TestWirelessAndWiredNetwork.wirelessHost1.wlan[0].mac.dcf packetReceivedFromPeerUnicast:sum(packetBytes) 222
attr interpolationmode none
attr source ieee80211Unicast(packetReceivedFromPeer)
attr title "packets received: unicast, sum(packetBytes)"
scalar TestWirelessAndWiredNetwork.wirelessHost1.wlan[0].mac.dcf packetReceivedFromPeerMulticast:count 53
attr interpolationmode none
attr source ieee80211Multicast(packetReceivedFromPeer)
attr title "packets received: multicast, count"
scalar TestWirelessAndWiredNetwork.wirelessHost1.wlan[0].mac.dcf packetReceivedFromPeerMulticast:sum(packetBytes) 2578
attr interpolationmode none
attr source ieee80211Multicast(packetReceivedFromPeer)
attr title "packets received: multicast, sum(packetBytes)"
scalar TestWirelessAndWiredNetwork.wirelessHost1.wlan[0].mac.dcf packetReceivedFromPeerBroadcast:count 53
attr interpolationmode none
attr source ieee80211Broadcast(packetReceivedFromPeer)
attr title "packets received: broadcast, count"
scalar TestWirelessAndWiredNetwork.wirelessHost1.wlan[0].mac.dcf packetReceivedFromPeerBroadcast:sum(packetBytes) 2578
attr interpolationmode none
attr source ieee80211Broadcast(packetReceivedFromPeer)
attr title "packets received: broadcast, sum(packetBytes)"
scalar TestWirelessAndWiredNetwork.wirelessHost1.wlan[0].mac.dcf packetReceivedFromPeerWithRetry:count 0
attr interpolationmode none
attr source ieee80211Retry(packetReceivedFromPeer)
attr title "packets received: with retry, count"
scalar TestWirelessAndWiredNetwork.wirelessHost1.wlan[0].mac.dcf packetReceivedFromPeerWithRetry:sum(packetBytes) 0
attr interpolationmode none
attr source ieee80211Retry(packetReceivedFromPeer)
attr title "packets received: with retry, sum(packetBytes)"
scalar TestWirelessAndWiredNetwork.wirelessHost1.wlan[0].mac.dcf packetReceivedFromPeerWithoutRetry:count 62
attr interpolationmode none
attr source ieee80211NotRetry(packetReceivedFromPeer)
attr title "packets received: without retry, count"
scalar TestWirelessAndWiredNetwork.wirelessHost1.wlan[0].mac.dcf packetReceivedFromPeerWithoutRetry:sum(packetBytes) 2800
attr interpolationmode none
attr source ieee80211NotRetry(packetReceivedFromPeer)
attr title "packets received: without retry, sum(packetBytes)"
scalar TestWirelessAndWiredNetwork.wirelessHost1.wlan[0].mac.dcf packetSentToPeer:count 11
attr interpolationmode none
attr title "packets sent, count"
scalar TestWirelessAndWiredNetwork.wirelessHost1.wlan[0].mac.dcf packetSentToPeer:sum(packetBytes) 440
attr interpolationmode none
attr title "packets sent, sum(packetBytes)"
scalar TestWirelessAndWiredNetwork.wirelessHost1.wlan[0].mac.dcf packetSentToPeerUnicast:count 10
attr interpolationmode none
attr source ieee80211Unicast(packetSentToPeer)
attr title "packets sent: unicast, count"
scalar TestWirelessAndWiredNetwork.wirelessHost1.wlan[0].mac.dcf packetSentToPeerUnicast:sum(packetBytes) 408
attr interpolationmode none
attr source ieee80211Unicast(packetSentToPeer)
attr title "packets sent: unicast, sum(packetBytes)"
scalar TestWirelessAndWiredNetwork.wirelessHost1.wlan[0].mac.dcf packetSentToPeerMulticast:count 1
attr interpolationmode none
attr source ieee80211Multicast(packetSentToPeer)
attr title "packets sent: multicast, count"
scalar TestWirelessAndWiredNetwork.wirelessHost1.wlan[0].mac.dcf packetSentToPeerMulticast:sum(packetBytes) 32
attr interpolationmode none
attr source ieee80211Multicast(packetSentToPeer)
attr title "packets sent: multicast, sum(packetBytes)"
scalar TestWirelessAndWiredNetwork.wirelessHost1.wlan[0].mac.dcf packetSentToPeerBroadcast:count 1
attr interpolationmode none
attr source ieee80211Broadcast(packetSentToPeer)
attr title "packets sent: broadcast , count"
scalar TestWirelessAndWiredNetwork.wirelessHost1.wlan[0].mac.dcf packetSentToPeerBroadcast:sum(packetBytes) 32
attr interpolationmode none
attr source ieee80211Broadcast(packetSentToPeer)
attr title "packets sent: broadcast , sum(packetBytes)"
scalar TestWirelessAndWiredNetwork.wirelessHost1.wlan[0].mac.dcf packetSentToPeerWithRetry:count 0
attr interpolationmode none
attr source ieee80211Retry(packetSentToPeer)
attr title "packets sent: with retry, count"
scalar TestWirelessAndWiredNetwork.wirelessHost1.wlan[0].mac.dcf packetSentToPeerWithRetry:sum(packetBytes) 0
attr interpolationmode none
attr source ieee80211Retry(packetSentToPeer)
attr title "packets sent: with retry, sum(packetBytes)"
scalar TestWirelessAndWiredNetwork.wirelessHost1.wlan[0].mac.dcf packetSentToPeerWithoutRetry:count 11
attr interpolationmode none
attr source ieee80211NotRetry(packetSentToPeer)
attr title "packets sent: without retry, count"
scalar TestWirelessAndWiredNetwork.wirelessHost1.wlan[0].mac.dcf packetSentToPeerWithoutRetry:sum(packetBytes) 440
attr interpolationmode none
attr source ieee80211NotRetry(packetSentToPeer)
attr title "packets sent: without retry, sum(packetBytes)"
scalar TestWirelessAndWiredNetwork.wirelessHost1.wlan[0].mac.dcf packetDrop:count 24
attr interpolationmode none
attr source packetDropped
attr title "packet drops, count"
scalar TestWirelessAndWiredNetwork.wirelessHost1.wlan[0].mac.dcf packetDrop:sum(packetBytes) 980
attr interpolationmode none
attr source packetDropped
attr title "packet drops, sum(packetBytes)"
scalar TestWirelessAndWiredNetwork.wirelessHost1.wlan[0].mac.dcf packetDropNotAddressedToUs:count 24
attr interpolationmode none
attr source packetDropReasonIsNotAddressedToUs(packetDropped)
attr title "packet drops: not addressed to us, count"
scalar TestWirelessAndWiredNetwork.wirelessHost1.wlan[0].mac.dcf packetDropNotAddressedToUs:sum(packetBytes) 980
attr interpolationmode none
attr source packetDropReasonIsNotAddressedToUs(packetDropped)
attr title "packet drops: not addressed to us, sum(packetBytes)"
scalar TestWirelessAndWiredNetwork.wirelessHost1.wlan[0].mac.dcf packetDropQueueOverflow:count 0
attr interpolationmode none
attr source packetDropReasonIsQueueOverflow(packetDropped)
attr title "packet drops: queue overflow, count"
scalar TestWirelessAndWiredNetwork.wirelessHost1.wlan[0].mac.dcf packetDropQueueOverflow:sum(packetBytes) 0
attr interpolationmode none
attr source packetDropReasonIsQueueOverflow(packetDropped)
attr title "packet drops: queue overflow, sum(packetBytes)"
scalar TestWirelessAndWiredNetwork.wirelessHost1.wlan[0].mac.dcf packetDropRetryLimitReached:count 0
attr interpolationmode none
attr source packetDropReasonIsRetryLimitReached(packetDropped)
attr title "packet drops: retry limit reached, count"
scalar TestWirelessAndWiredNetwork.wirelessHost1.wlan[0].mac.dcf packetDropRetryLimitReached:sum(packetBytes) 0
attr interpolationmode none
attr source packetDropReasonIsRetryLimitReached(packetDropped)
attr title "packet drops: retry limit reached, sum(packetBytes)"
scalar TestWirelessAndWiredNetwork.wirelessHost1.wlan[0].mac.dcf linkBroken:count 0
attr interpolationmode none
attr title "link breaks, count"
scalar TestWirelessAndWiredNetwork.wirelessHost1.wlan[0].mac.dcf frameSequenceFinished:count 7
attr title "finished frame sequences, count"
statistic TestWirelessAndWiredNetwork.wirelessHost1.wlan[0].mac.dcf frameSequenceDuration:histogram
field count 7
field mean 8.7543838571429e-005
field stddev 2.4338013193004e-005
field min 3.8e-005
field max 0.000114761374
field sum 0.00061280687
field sqrsum 5.7201499019839e-008
attr source frameSequenceDuration(frameSequenceFinished)
attr title "frame sequence durations, histogram"
bin	-inf	0
bin	1.8e-005	0
bin	2e-005	0
bin	2.2e-005	0
bin	2.4e-005	0
bin	2.6e-005	0
bin	2.8e-005	0
bin	3e-005	0
bin	3.2e-005	0
bin	3.4e-005	0
bin	3.6e-005	1
bin	3.8e-005	0
bin	4e-005	0
bin	4.2e-005	0
bin	4.4e-005	0
bin	4.6e-005	0
bin	4.8e-005	0
bin	5e-005	0
bin	5.2e-005	0
bin	5.4e-005	0
bin	5.6e-005	0
bin	5.8e-005	0
bin	6e-005	0
bin	6.2e-005	0
bin	6.4e-005	0
bin	6.6e-005	0
bin	6.8e-005	0
bin	7e-005	0
bin	7.2e-005	0
bin	7.4e-005	0
bin	7.6e-005	0
bin	7.8e-005	0
bin	8e-005	0
bin	8.2e-005	0
bin	8.4e-005	0
bin	8.6e-005	3
bin	8.8e-005	0
bin	9e-005	0
bin	9.2e-005	0
bin	9.4e-005	1
bin	9.6e-005	0
bin	9.8e-005	0
bin	0.0001	0
bin	0.000102	0
bin	0.000104	1
bin	0.000106	0
bin	0.000108	0
bin	0.00011	0
bin	0.000112	0
bin	0.000114	1
bin	0.000116	0
bin	0.000118	0
bin	0.00012	0
bin	0.000122	0
bin	0.000124	0
bin	0.000126	0
bin	0.000128	0
bin	0.00013	0
bin	0.000132	0
bin	0.000134	0
statistic TestWirelessAndWiredNetwork.wirelessHost1.wlan[0].mac.dcf frameSequenceNumPackets:histogram
field count 7
field mean 1.8571428571429
field stddev 0.37796447300923
field min 1
field max 2
field sum 13
field sqrsum 25
attr source frameSequenceNumPackets(frameSequenceFinished)
attr title "frame sequences: number of packets, histogram"
bin	-inf	0
bin	0	0
bin	1	1
bin	2	6
bin	3	0
scalar TestWirelessAndWiredNetwork.wirelessHost1.wlan[0].mac packetReceivedFromLower:count 86
attr interpolationmode none
attr title "packets received from lower layer, count"
scalar TestWirelessAndWiredNetwork.wirelessHost1.wlan[0].mac packetReceivedFromLower:sum(packetBytes) 3780
attr interpolationmode none
attr title "packets received from lower layer, sum(packetBytes)"
scalar TestWirelessAndWiredNetwork.wirelessHost1.wlan[0].mac packetSentToLower:count 11
attr interpolationmode none
attr title "packets sent to lower layer, count"
scalar TestWirelessAndWiredNetwork.wirelessHost1.wlan[0].mac packetSentToLower:sum(packetBytes) 440
attr interpolationmode none
attr title "packets sent to lower layer, sum(packetBytes)"
scalar TestWirelessAndWiredNetwork.wirelessHost1.wlan[0].mac packetReceivedFromUpper:count 3
attr interpolationmode none
attr title "packets received from upper layer, count"
scalar TestWirelessAndWiredNetwork.wirelessHost1.wlan[0].mac packetReceivedFromUpper:sum(packetBytes) 164
attr interpolationmode none
attr title "packets received from upper layer, sum(packetBytes)"
scalar TestWirelessAndWiredNetwork.wirelessHost1.wlan[0].mac packetSentToUpper:count 2
attr interpolationmode none
attr title "packets sent to upper layer, count"
scalar TestWirelessAndWiredNetwork.wirelessHost1.wlan[0].mac packetSentToUpper:sum(packetBytes) 90
attr interpolationmode none
attr title "packets sent to upper layer, sum(packetBytes)"
scalar TestWirelessAndWiredNetwork.wirelessHost1.wlan[0].mac packetDrop:count 24
attr interpolationmode none
attr source packetDropped
attr title "packet drops, count"
scalar TestWirelessAndWiredNetwork.wirelessHost1.wlan[0].mac packetDrop:sum(packetBytes) 980
attr interpolationmode none
attr source packetDropped
attr title "packet drops, sum(packetBytes)"
scalar TestWirelessAndWiredNetwork.wirelessHost1.wlan[0].mac packetDropIncorrectlyReceived:count 0
attr interpolationmode none
attr source packetDropReasonIsIncorrectlyReceived(packetDropped)
attr title "packet drops: incorrectly received, count"
scalar TestWirelessAndWiredNetwork.wirelessHost1.wlan[0].mac packetDropIncorrectlyReceived:sum(packetBytes) 0
attr interpolationmode none
attr source packetDropReasonIsIncorrectlyReceived(packetDropped)
attr title "packet drops: incorrectly received, sum(packetBytes)"
scalar TestWirelessAndWiredNetwork.wirelessHost1.wlan[0].mac packetDropNotAddressedToUs:count 24
attr interpolationmode none
attr source packetDropReasonIsNotAddressedToUs(packetDropped)
attr title "packet drops: not addressed to us, count"
scalar TestWirelessAndWiredNetwork.wirelessHost1.wlan[0].mac packetDropNotAddressedToUs:sum(packetBytes) 980
attr interpolationmode none
attr source packetDropReasonIsNotAddressedToUs(packetDropped)
attr title "packet drops: not addressed to us, sum(packetBytes)"
scalar TestWirelessAndWiredNetwork.wirelessHost1.wlan[0].mac packetDropQueueOverflow:count 0
attr interpolationmode none
attr source packetDropReasonIsQueueOverflow(packetDropped)
attr title "packet drops: queue overflow, count"
scalar TestWirelessAndWiredNetwork.wirelessHost1.wlan[0].mac packetDropQueueOverflow:sum(packetBytes) 0
attr interpolationmode none
attr source packetDropReasonIsQueueOverflow(packetDropped)
attr title "packet drops: queue overflow, sum(packetBytes)"
scalar TestWirelessAndWiredNetwork.wirelessHost1.wlan[0].mac packetDropRetryLimitReached:count 0
attr interpolationmode none
attr source packetDropReasonIsRetryLimitReached(packetDropped)
attr title "packet drops: retry limit reached, count"
scalar TestWirelessAndWiredNetwork.wirelessHost1.wlan[0].mac packetDropRetryLimitReached:sum(packetBytes) 0
attr interpolationmode none
attr source packetDropReasonIsRetryLimitReached(packetDropped)
attr title "packet drops: retry limit reached, sum(packetBytes)"
scalar TestWirelessAndWiredNetwork.wirelessHost1.wlan[0].mac packetDropDuplicateDetected:count 0
attr interpolationmode none
attr source packetDropReasonIsDuplicateDetected(packetDropped)
attr title "packet drops: duplicate detected, count"
scalar TestWirelessAndWiredNetwork.wirelessHost1.wlan[0].mac packetDropDuplicateDetected:sum(packetBytes) 0
attr interpolationmode none
attr source packetDropReasonIsDuplicateDetected(packetDropped)
attr title "packet drops: duplicate detected, sum(packetBytes)"
scalar TestWirelessAndWiredNetwork.wirelessHost1.wlan[0].mac packetDropOther:count 0
attr interpolationmode none
attr source packetDropReasonIsOther(packetDropped)
attr title "packet drops: other, count"
scalar TestWirelessAndWiredNetwork.wirelessHost1.wlan[0].mac packetDropOther:sum(packetBytes) 0
attr interpolationmode none
attr source packetDropReasonIsOther(packetDropped)
attr title "packet drops: other, sum(packetBytes)"
scalar TestWirelessAndWiredNetwork.wirelessHost1.wlan[0].mac linkBroken:count 0
attr interpolationmode none
attr title "link breaks, count"
statistic TestWirelessAndWiredNetwork.wirelessHost1.wlan[0].radio minSnir:histogram
field count 86
field mean 15195.297012563
field stddev 413.76153533063
field min 15021.708653389
field max 16170.062414081
field sum 1306795.5430804
field sqrsum 19871698293.491
attr source minimumSnir(packetSentToUpper)
attr title "Min SNIR, histogram"
bin	-inf	0
bin	14720	0
bin	14740	0
bin	14760	0
bin	14780	0
bin	14800	0
bin	14820	0
bin	14840	0
bin	14860	0
bin	14880	0
bin	14900	0
bin	14920	0
bin	14940	0
bin	14960	0
bin	14980	0
bin	15000	0
bin	15020	73
bin	15040	0
bin	15060	0
bin	15080	0
bin	15100	0
bin	15120	0
bin	15140	0
bin	15160	0
bin	15180	0
bin	15200	0
bin	15220	0
bin	15240	0
bin	15260	0
bin	15280	0
bin	15300	0
bin	15320	0
bin	15340	0
bin	15360	0
bin	15380	0
bin	15400	0
bin	15420	0
bin	15440	0
bin	15460	0
bin	15480	0
bin	15500	0
bin	15520	0
bin	15540	0
bin	15560	0
bin	15580	0
bin	15600	0
bin	15620	0
bin	15640	0
bin	15660	0
bin	15680	0
bin	15700	0
bin	15720	0
bin	15740	0
bin	15760	0
bin	15780	0
bin	15800	0
bin	15820	0
bin	15840	0
bin	15860	0
bin	15880	0
bin	15900	0
bin	15920	0
bin	15940	0
bin	15960	0
bin	15980	0
bin	16000	0
bin	16020	0
bin	16040	0
bin	16060	0
bin	16080	0
bin	16100	0
bin	16120	0
bin	16140	0
bin	16160	13
bin	16180	0
bin	16200	0
bin	16220	0
bin	16240	0
bin	16260	0
bin	16280	0
bin	16300	0
bin	16320	0
bin	16340	0
bin	16360	0
bin	16380	0
bin	16400	0
bin	16420	0
bin	16440	0
bin	16460	0
statistic TestWirelessAndWiredNetwork.wirelessHost1.wlan[0].radio packetErrorRate:histogram
field count 86
field mean 0
field stddev 0
field min 0
field max 0
field sum 0
field sqrsum 0
attr source packetErrorRate(packetSentToUpper)
attr title "Packet error rate, histogram"
bin	-inf	0
bin	-0.5	0
bin	-0.48	0
bin	-0.46	0
bin	-0.44	0
bin	-0.42	0
bin	-0.4	0
bin	-0.38	0
bin	-0.36	0
bin	-0.34	0
bin	-0.32	0
bin	-0.3	0
bin	-0.28	0
bin	-0.26	0
bin	-0.24	0
bin	-0.22	0
bin	-0.2	0
bin	-0.18	0
bin	-0.16	0
bin	-0.14	0
bin	-0.12	0
bin	-0.1	0
bin	-0.08	0
bin	-0.06	0
bin	-0.04	0
bin	-0.02	0
bin	0	86
bin	0.02	0
bin	0.04	0
bin	0.06	0
bin	0.08	0
bin	0.1	0
bin	0.12	0
bin	0.14	0
bin	0.16	0
bin	0.18	0
bin	0.2	0
bin	0.22	0
bin	0.24	0
bin	0.26	0
bin	0.28	0
bin	0.3	0
bin	0.32	0
bin	0.34	0
bin	0.36	0
bin	0.38	0
bin	0.4	0
bin	0.42	0
bin	0.44	0
bin	0.46	0
bin	0.48	0
bin	0.5	0
statistic TestWirelessAndWiredNetwork.wirelessHost1.wlan[0].radio bitErrorRate:histogram
field count 0
field mean nan
field stddev nan
field min nan
field max nan
field sum 0
field sqrsum 0
attr source bitErrorRate(packetSentToUpper)
attr title "Bit error rate, histogram"
bin	-inf	0
bin	0	0
bin	1	0
statistic TestWirelessAndWiredNetwork.wirelessHost1.wlan[0].radio symbolErrorRate:histogram
field count 0
field mean nan
field stddev nan
field min nan
field max nan
field sum 0
field sqrsum 0
attr source symbolErrorRate(packetSentToUpper)
attr title "Symbol error rate, histogram"
bin	-inf	0
bin	0	0
bin	1	0
scalar TestWirelessAndWiredNetwork.wirelessHost1.wlan[0].radio transmissionState:count 44
attr interpolationmode sample-hold
attr source transmissionStateChanged
attr title "Radio transmission state, count"
scalar TestWirelessAndWiredNetwork.wirelessHost1.wlan[0].radio receptionState:count 196
attr interpolationmode sample-hold
attr source receptionStateChanged
attr title "Radio reception state, count"
scalar TestWirelessAndWiredNetwork.wirelessHost1.wlan[0].radio radioMode:count 25
attr interpolationmode sample-hold
attr source radioModeChanged
attr title "Radio mode, count"
statistic TestWirelessAndWiredNetwork.wirelessHost1.wlan[0].radio radioChannel:histogram
field count 4
field mean 0
field stddev 0
field min 0
field max 0
field sum 0
field sqrsum 0
attr interpolationmode sample-hold
attr source radioChannelChanged
attr title "Radio channel, histogram"
bin	-inf	0
bin	-0.5	0
bin	-0.48	0
bin	-0.46	0
bin	-0.44	0
bin	-0.42	0
bin	-0.4	0
bin	-0.38	0
bin	-0.36	0
bin	-0.34	0
bin	-0.32	0
bin	-0.3	0
bin	-0.28	0
bin	-0.26	0
bin	-0.24	0
bin	-0.22	0
bin	-0.2	0
bin	-0.18	0
bin	-0.16	0
bin	-0.14	0
bin	-0.12	0
bin	-0.1	0
bin	-0.08	0
bin	-0.06	0
bin	-0.04	0
bin	-0.02	0
bin	0	4
bin	0.02	0
bin	0.04	0
bin	0.06	0
bin	0.08	0
bin	0.1	0
bin	0.12	0
bin	0.14	0
bin	0.16	0
bin	0.18	0
bin	0.2	0
bin	0.22	0
bin	0.24	0
bin	0.26	0
bin	0.28	0
bin	0.3	0
bin	0.32	0
bin	0.34	0
bin	0.36	0
bin	0.38	0
bin	0.4	0
bin	0.42	0
bin	0.44	0
bin	0.46	0
bin	0.48	0
bin	0.5	0
scalar TestWirelessAndWiredNetwork.wirelessHost1.ipv4.ip packetDropAddressResolutionFailed:count 0
attr interpolationmode none
attr source packetDropReasonIsAddressResolutionFailed(packetDropped)
attr title "packet drop: address resolution failed, count"
scalar TestWirelessAndWiredNetwork.wirelessHost1.ipv4.ip packetDropAddressResolutionFailed:sum(packetBytes) 0
attr interpolationmode none
attr source packetDropReasonIsAddressResolutionFailed(packetDropped)
attr title "packet drop: address resolution failed, sum(packetBytes)"
scalar TestWirelessAndWiredNetwork.wirelessHost1.ipv4.ip packetDropHopLimitReached:count 0
attr interpolationmode none
attr source packetDropReasonIsHopLimitReached(packetDropped)
attr title "packet drop: hop limit reached, count"
scalar TestWirelessAndWiredNetwork.wirelessHost1.ipv4.ip packetDropHopLimitReached:sum(packetBytes) 0
attr interpolationmode none
attr source packetDropReasonIsHopLimitReached(packetDropped)
attr title "packet drop: hop limit reached, sum(packetBytes)"
scalar TestWirelessAndWiredNetwork.wirelessHost1.ipv4.ip packetDropForwardingDisabled:count 0
attr interpolationmode none
attr source packetDropReasonIsForwardingDisabled(packetDropped)
attr title "packet drop: forwarding disabled, count"
scalar TestWirelessAndWiredNetwork.wirelessHost1.ipv4.ip packetDropForwardingDisabled:sum(packetBytes) 0
attr interpolationmode none
attr source packetDropReasonIsForwardingDisabled(packetDropped)
attr title "packet drop: forwarding disabled, sum(packetBytes)"
scalar TestWirelessAndWiredNetwork.wirelessHost1.ipv4.ip packetDropNoInterfaceFound:count 0
attr interpolationmode none
attr source packetDropReasonIsNoInterfaceFound(packetDropped)
attr title "packet drop: no interface found, count"
scalar TestWirelessAndWiredNetwork.wirelessHost1.ipv4.ip packetDropNoInterfaceFound:sum(packetBytes) 0
attr interpolationmode none
attr source packetDropReasonIsNoInterfaceFound(packetDropped)
attr title "packet drop: no interface found, sum(packetBytes)"
scalar TestWirelessAndWiredNetwork.wirelessHost1.ipv4.ip packetDropNoRouteFound:count 0
attr interpolationmode none
attr source packetDropReasonIsNoRouteFound(packetDropped)
attr title "packet drop: no route found, count"
scalar TestWirelessAndWiredNetwork.wirelessHost1.ipv4.ip packetDropNoRouteFound:sum(packetBytes) 0
attr interpolationmode none
attr source packetDropReasonIsNoRouteFound(packetDropped)
attr title "packet drop: no route found, sum(packetBytes)"
scalar TestWirelessAndWiredNetwork.wirelessHost1.ipv4.ip packetDropUndefined:count 0
attr interpolationmode none
attr source packetDropReasonIsUndefined(packetDropped)
attr title "packet drop: undefined, count"
scalar TestWirelessAndWiredNetwork.wirelessHost1.ipv4.ip packetDropUndefined:sum(packetBytes) 0
attr interpolationmode none
attr source packetDropReasonIsUndefined(packetDropped)
attr title "packet drop: undefined, sum(packetBytes)"
[...]
attr interpolationmode none
attr source packetDropped
attr title "packet drops, count"
scalar TestWirelessAndWiredNetwork.wirelessHost2.wlan[0].mac.dcf packetDrop:sum(packetBytes) 630
attr interpolationmode none
attr source packetDropped
attr title "packet drops, sum(packetBytes)"
scalar TestWirelessAndWiredNetwork.wirelessHost2.wlan[0].mac.dcf packetDropNotAddressedToUs:count 19
attr interpolationmode none
attr source packetDropReasonIsNotAddressedToUs(packetDropped)
attr title "packet drops: not addressed to us, count"
scalar TestWirelessAndWiredNetwork.wirelessHost2.wlan[0].mac.dcf packetDropNotAddressedToUs:sum(packetBytes) 630
attr interpolationmode none
attr source packetDropReasonIsNotAddressedToUs(packetDropped)
attr title "packet drops: not addressed to us, sum(packetBytes)"
scalar TestWirelessAndWiredNetwork.wirelessHost2.wlan[0].mac.dcf packetDropQueueOverflow:count 0
attr interpolationmode none
attr source packetDropReasonIsQueueOverflow(packetDropped)
attr title "packet drops: queue overflow, count"
scalar TestWirelessAndWiredNetwork.wirelessHost2.wlan[0].mac.dcf packetDropQueueOverflow:sum(packetBytes) 0
attr interpolationmode none
attr source packetDropReasonIsQueueOverflow(packetDropped)
attr title "packet drops: queue overflow, sum(packetBytes)"
scalar TestWirelessAndWiredNetwork.wirelessHost2.wlan[0].mac.dcf packetDropRetryLimitReached:count 0
attr interpolationmode none
attr source packetDropReasonIsRetryLimitReached(packetDropped)
attr title "packet drops: retry limit reached, count"
scalar TestWirelessAndWiredNetwork.wirelessHost2.wlan[0].mac.dcf packetDropRetryLimitReached:sum(packetBytes) 0
attr interpolationmode none
attr source packetDropReasonIsRetryLimitReached(packetDropped)
attr title "packet drops: retry limit reached, sum(packetBytes)"
scalar TestWirelessAndWiredNetwork.wirelessHost2.wlan[0].mac.dcf linkBroken:count 0
attr interpolationmode none
attr title "link breaks, count"
scalar TestWirelessAndWiredNetwork.wirelessHost2.wlan[0].mac.dcf frameSequenceFinished:count 7
attr title "finished frame sequences, count"
statistic TestWirelessAndWiredNetwork.wirelessHost2.wlan[0].mac.dcf frameSequenceDuration:histogram
field count 7
field mean 9.0400981428571e-005
field stddev 2.7674106179776e-005
field min 3.8e-005
field max 0.000125
field sum 0.00063280687
field sqrsum 6.1801499019839e-008
attr source frameSequenceDuration(frameSequenceFinished)
attr title "frame sequence durations, histogram"
bin	-inf	0
bin	1.6e-005	0
bin	1.8e-005	0
bin	2e-005	0
bin	2.2e-005	0
bin	2.4e-005	0
bin	2.6e-005	0
bin	2.8e-005	0
bin	3e-005	0
bin	3.2e-005	0
bin	3.4e-005	0
bin	3.6e-005	0
bin	3.8e-005	1
bin	4e-005	0
bin	4.2e-005	0
bin	4.4e-005	0
bin	4.6e-005	0
bin	4.8e-005	0
bin	5e-005	0
bin	5.2e-005	0
bin	5.4e-005	0
bin	5.6e-005	0
bin	5.8e-005	0
bin	6e-005	0
bin	6.2e-005	0
bin	6.4e-005	0
bin	6.6e-005	0
bin	6.8e-005	0
bin	7e-005	0
bin	7.2e-005	0
bin	7.4e-005	0
bin	7.6e-005	0
bin	7.8e-005	0
bin	8e-005	0
bin	8.2e-005	0
bin	8.4e-005	0
bin	8.6e-005	3
bin	8.8e-005	0
bin	9e-005	0
bin	9.2e-005	0
bin	9.4e-005	1
bin	9.6e-005	0
bin	9.8e-005	0
bin	0.0001	0
bin	0.000102	0
bin	0.000104	0
bin	0.000106	0
bin	0.000108	0
bin	0.00011	0
bin	0.000112	0
bin	0.000114	1
bin	0.000116	0
bin	0.000118	0
bin	0.00012	0
bin	0.000122	0
bin	0.000124	1
bin	0.000126	0
bin	0.000128	0
bin	0.00013	0
bin	0.000132	0
bin	0.000134	0
bin	0.000136	0
bin	0.000138	0
bin	0.00014	0
bin	0.000142	0
bin	0.000144	0
bin	0.000146	0
bin	0.000148	0
statistic TestWirelessAndWiredNetwork.wirelessHost2.wlan[0].mac.dcf frameSequenceNumPackets:histogram
field count 7
field mean 1.8571428571429
field stddev 0.37796447300923
field min 1
field max 2
field sum 13
field sqrsum 25
attr source frameSequenceNumPackets(frameSequenceFinished)
attr title "frame sequences: number of packets, histogram"
bin	-inf	0
bin	0	0
bin	1	1
bin	2	6
bin	3	0
scalar TestWirelessAndWiredNetwork.wirelessHost2.wlan[0].mac packetReceivedFromLower:count 83
attr interpolationmode none
attr title "packets received from lower layer, count"
scalar TestWirelessAndWiredNetwork.wirelessHost2.wlan[0].mac packetReceivedFromLower:sum(packetBytes) 3632
attr interpolationmode none
attr title "packets received from lower layer, sum(packetBytes)"
scalar TestWirelessAndWiredNetwork.wirelessHost2.wlan[0].mac packetSentToLower:count 14
attr interpolationmode none
attr title "packets sent to lower layer, count"
scalar TestWirelessAndWiredNetwork.wirelessHost2.wlan[0].mac packetSentToLower:sum(packetBytes) 644
attr interpolationmode none
attr title "packets sent to lower layer, sum(packetBytes)"
scalar TestWirelessAndWiredNetwork.wirelessHost2.wlan[0].mac packetReceivedFromUpper:count 3
attr interpolationmode none
attr title "packets received from upper layer, count"
scalar TestWirelessAndWiredNetwork.wirelessHost2.wlan[0].mac packetReceivedFromUpper:sum(packetBytes) 220
attr interpolationmode none
attr title "packets received from upper layer, sum(packetBytes)"
scalar TestWirelessAndWiredNetwork.wirelessHost2.wlan[0].mac packetSentToUpper:count 4
attr interpolationmode none
attr title "packets sent to upper layer, count"
scalar TestWirelessAndWiredNetwork.wirelessHost2.wlan[0].mac packetSentToUpper:sum(packetBytes) 236
attr interpolationmode none
attr title "packets sent to upper layer, sum(packetBytes)"
scalar TestWirelessAndWiredNetwork.wirelessHost2.wlan[0].mac packetDrop:count 19
attr interpolationmode none
attr source packetDropped
attr title "packet drops, count"
scalar TestWirelessAndWiredNetwork.wirelessHost2.wlan[0].mac packetDrop:sum(packetBytes) 630
attr interpolationmode none
attr source packetDropped
attr title "packet drops, sum(packetBytes)"
scalar TestWirelessAndWiredNetwork.wirelessHost2.wlan[0].mac packetDropIncorrectlyReceived:count 0
attr interpolationmode none
attr source packetDropReasonIsIncorrectlyReceived(packetDropped)
attr title "packet drops: incorrectly received, count"
scalar TestWirelessAndWiredNetwork.wirelessHost2.wlan[0].mac packetDropIncorrectlyReceived:sum(packetBytes) 0
attr interpolationmode none
attr source packetDropReasonIsIncorrectlyReceived(packetDropped)
attr title "packet drops: incorrectly received, sum(packetBytes)"
scalar TestWirelessAndWiredNetwork.wirelessHost2.wlan[0].mac packetDropNotAddressedToUs:count 19
attr interpolationmode none
attr source packetDropReasonIsNotAddressedToUs(packetDropped)
attr title "packet drops: not addressed to us, count"
scalar TestWirelessAndWiredNetwork.wirelessHost2.wlan[0].mac packetDropNotAddressedToUs:sum(packetBytes) 630
attr interpolationmode none
attr source packetDropReasonIsNotAddressedToUs(packetDropped)
attr title "packet drops: not addressed to us, sum(packetBytes)"
scalar TestWirelessAndWiredNetwork.wirelessHost2.wlan[0].mac packetDropQueueOverflow:count 0
attr interpolationmode none
attr source packetDropReasonIsQueueOverflow(packetDropped)
attr title "packet drops: queue overflow, count"
scalar TestWirelessAndWiredNetwork.wirelessHost2.wlan[0].mac packetDropQueueOverflow:sum(packetBytes) 0
attr interpolationmode none
attr source packetDropReasonIsQueueOverflow(packetDropped)
attr title "packet drops: queue overflow, sum(packetBytes)"
scalar TestWirelessAndWiredNetwork.wirelessHost2.wlan[0].mac packetDropRetryLimitReached:count 0
attr interpolationmode none
attr source packetDropReasonIsRetryLimitReached(packetDropped)
attr title "packet drops: retry limit reached, count"
scalar TestWirelessAndWiredNetwork.wirelessHost2.wlan[0].mac packetDropRetryLimitReached:sum(packetBytes) 0
attr interpolationmode none
attr source packetDropReasonIsRetryLimitReached(packetDropped)
attr title "packet drops: retry limit reached, sum(packetBytes)"
scalar TestWirelessAndWiredNetwork.wirelessHost2.wlan[0].mac packetDropDuplicateDetected:count 0
attr interpolationmode none
attr source packetDropReasonIsDuplicateDetected(packetDropped)
attr title "packet drops: duplicate detected, count"
scalar TestWirelessAndWiredNetwork.wirelessHost2.wlan[0].mac packetDropDuplicateDetected:sum(packetBytes) 0
attr interpolationmode none
attr source packetDropReasonIsDuplicateDetected(packetDropped)
attr title "packet drops: duplicate detected, sum(packetBytes)"
scalar TestWirelessAndWiredNetwork.wirelessHost2.wlan[0].mac packetDropOther:count 0
attr interpolationmode none
attr source packetDropReasonIsOther(packetDropped)
attr title "packet drops: other, count"
scalar TestWirelessAndWiredNetwork.wirelessHost2.wlan[0].mac packetDropOther:sum(packetBytes) 0
attr interpolationmode none
attr source packetDropReasonIsOther(packetDropped)
attr title "packet drops: other, sum(packetBytes)"
scalar TestWirelessAndWiredNetwork.wirelessHost2.wlan[0].mac linkBroken:count 0
attr interpolationmode none
attr title "link breaks, count"
statistic TestWirelessAndWiredNetwork.wirelessHost2.wlan[0].radio minSnir:histogram
field count 83
field mean 15160.064528171
field stddev 376.08945332119
field min 15021.708653389
field max 16170.062414081
field sum 1258285.3558382
field sqrsum 19087285538.065
attr source minimumSnir(packetSentToUpper)
attr title "Min SNIR, histogram"
bin	-inf	0
bin	14720	0
bin	14740	0
bin	14760	0
bin	14780	0
bin	14800	0
bin	14820	0
bin	14840	0
bin	14860	0
bin	14880	0
bin	14900	0
bin	14920	0
bin	14940	0
bin	14960	0
bin	14980	0
bin	15000	0
bin	15020	73
bin	15040	0
bin	15060	0
bin	15080	0
bin	15100	0
bin	15120	0
bin	15140	0
bin	15160	0
bin	15180	0
bin	15200	0
bin	15220	0
bin	15240	0
bin	15260	0
bin	15280	0
bin	15300	0
bin	15320	0
bin	15340	0
bin	15360	0
bin	15380	0
bin	15400	0
bin	15420	0
bin	15440	0
bin	15460	0
bin	15480	0
bin	15500	0
bin	15520	0
bin	15540	0
bin	15560	0
bin	15580	0
bin	15600	0
bin	15620	0
bin	15640	0
bin	15660	0
bin	15680	0
bin	15700	0
bin	15720	0
bin	15740	0
bin	15760	0
bin	15780	0
bin	15800	0
bin	15820	0
bin	15840	0
bin	15860	0
bin	15880	0
bin	15900	0
bin	15920	0
bin	15940	0
bin	15960	0
bin	15980	0
bin	16000	0
bin	16020	0
bin	16040	0
bin	16060	0
bin	16080	0
bin	16100	0
bin	16120	0
bin	16140	0
bin	16160	10
bin	16180	0
bin	16200	0
bin	16220	0
bin	16240	0
bin	16260	0
bin	16280	0
bin	16300	0
bin	16320	0
bin	16340	0
bin	16360	0
bin	16380	0
bin	16400	0
bin	16420	0
bin	16440	0
bin	16460	0
statistic TestWirelessAndWiredNetwork.wirelessHost2.wlan[0].radio packetErrorRate:histogram
field count 83
field mean 0
field stddev 0
field min 0
field max 0
field sum 0
field sqrsum 0
attr source packetErrorRate(packetSentToUpper)
attr title "Packet error rate, histogram"
bin	-inf	0
bin	-0.5	0
bin	-0.48	0
bin	-0.46	0
bin	-0.44	0
bin	-0.42	0
bin	-0.4	0
bin	-0.38	0
bin	-0.36	0
bin	-0.34	0
bin	-0.32	0
bin	-0.3	0
bin	-0.28	0
bin	-0.26	0
bin	-0.24	0
bin	-0.22	0
bin	-0.2	0
bin	-0.18	0
bin	-0.16	0
bin	-0.14	0
bin	-0.12	0
bin	-0.1	0
bin	-0.08	0
bin	-0.06	0
bin	-0.04	0
bin	-0.02	0
bin	0	83
bin	0.02	0
bin	0.04	0
bin	0.06	0
bin	0.08	0
bin	0.1	0
bin	0.12	0
bin	0.14	0
bin	0.16	0
bin	0.18	0
bin	0.2	0
bin	0.22	0
bin	0.24	0
bin	0.26	0
bin	0.28	0
bin	0.3	0
bin	0.32	0
bin	0.34	0
bin	0.36	0
bin	0.38	0
bin	0.4	0
bin	0.42	0
bin	0.44	0
bin	0.46	0
bin	0.48	0
bin	0.5	0
statistic TestWirelessAndWiredNetwork.wirelessHost2.wlan[0].radio bitErrorRate:histogram
field count 0
field mean nan
field stddev nan
field min nan
field max nan
field sum 0
field sqrsum 0
attr source bitErrorRate(packetSentToUpper)
attr title "Bit error rate, histogram"
bin	-inf	0
bin	0	0
bin	1	0
statistic TestWirelessAndWiredNetwork.wirelessHost2.wlan[0].radio symbolErrorRate:histogram
field count 0
field mean nan
field stddev nan
field min nan
field max nan
field sum 0
field sqrsum 0
attr source symbolErrorRate(packetSentToUpper)
attr title "Symbol error rate, histogram"
bin	-inf	0
bin	0	0
bin	1	0
scalar TestWirelessAndWiredNetwork.wirelessHost2.wlan[0].radio transmissionState:count 56
attr interpolationmode sample-hold
attr source transmissionStateChanged
attr title "Radio transmission state, count"
scalar TestWirelessAndWiredNetwork.wirelessHost2.wlan[0].radio receptionState:count 195
attr interpolationmode sample-hold
attr source receptionStateChanged
attr title "Radio reception state, count"
scalar TestWirelessAndWiredNetwork.wirelessHost2.wlan[0].radio radioMode:count 31
attr interpolationmode sample-hold
attr source radioModeChanged
attr title "Radio mode, count"
statistic TestWirelessAndWiredNetwork.wirelessHost2.wlan[0].radio radioChannel:histogram
field count 4
field mean 0
field stddev 0
field min 0
field max 0
field sum 0
field sqrsum 0
attr interpolationmode sample-hold
attr source radioChannelChanged
attr title "Radio channel, histogram"
bin	-inf	0
bin	-0.5	0
bin	-0.48	0
bin	-0.46	0
bin	-0.44	0
bin	-0.42	0
bin	-0.4	0
bin	-0.38	0
bin	-0.36	0
bin	-0.34	0
bin	-0.32	0
bin	-0.3	0
bin	-0.28	0
bin	-0.26	0
bin	-0.24	0
bin	-0.22	0
bin	-0.2	0
bin	-0.18	0
bin	-0.16	0
bin	-0.14	0
bin	-0.12	0
bin	-0.1	0
bin	-0.08	0
bin	-0.06	0
bin	-0.04	0
bin	-0.02	0
bin	0	4
bin	0.02	0
bin	0.04	0
bin	0.06	0
bin	0.08	0
bin	0.1	0
bin	0.12	0
bin	0.14	0
bin	0.16	0
bin	0.18	0
bin	0.2	0
bin	0.22	0
bin	0.24	0
bin	0.26	0
bin	0.28	0
bin	0.3	0
bin	0.32	0
bin	0.34	0
bin	0.36	0
bin	0.38	0
bin	0.4	0
bin	0.42	0
bin	0.44	0
bin	0.46	0
bin	0.48	0
bin	0.5	0
scalar TestWirelessAndWiredNetwork.wirelessHost2.ipv4.ip packetDropAddressResolutionFailed:count 0
attr interpolationmode none
attr source packetDropReasonIsAddressResolutionFailed(packetDropped)
attr title "packet drop: address resolution failed, count"
scalar TestWirelessAndWiredNetwork.wirelessHost2.ipv4.ip packetDropAddressResolutionFailed:sum(packetBytes) 0
attr interpolationmode none
attr source packetDropReasonIsAddressResolutionFailed(packetDropped)
attr title "packet drop: address resolution failed, sum(packetBytes)"
scalar TestWirelessAndWiredNetwork.wirelessHost2.ipv4.ip packetDropHopLimitReached:count 0
attr interpolationmode none
attr source packetDropReasonIsHopLimitReached(packetDropped)
attr title "packet drop: hop limit reached, count"
scalar TestWirelessAndWiredNetwork.wirelessHost2.ipv4.ip packetDropHopLimitReached:sum(packetBytes) 0
attr interpolationmode none
attr source packetDropReasonIsHopLimitReached(packetDropped)
attr title "packet drop: hop limit reached, sum(packetBytes)"
scalar TestWirelessAndWiredNetwork.wirelessHost2.ipv4.ip packetDropForwardingDisabled:count 0
attr interpolationmode none
attr source packetDropReasonIsForwardingDisabled(packetDropped)
attr title "packet drop: forwarding disabled, count"
scalar TestWirelessAndWiredNetwork.wirelessHost2.ipv4.ip packetDropForwardingDisabled:sum(packetBytes) 0
attr interpolationmode none
attr source packetDropReasonIsForwardingDisabled(packetDropped)
attr title "packet drop: forwarding disabled, sum(packetBytes)"
scalar TestWirelessAndWiredNetwork.wirelessHost2.ipv4.ip packetDropNoInterfaceFound:count 0
attr interpolationmode none
attr source packetDropReasonIsNoInterfaceFound(packetDropped)
attr title "packet drop: no interface found, count"
scalar TestWirelessAndWiredNetwork.wirelessHost2.ipv4.ip packetDropNoInterfaceFound:sum(packetBytes) 0
attr interpolationmode none
attr source packetDropReasonIsNoInterfaceFound(packetDropped)
attr title "packet drop: no interface found, sum(packetBytes)"
scalar TestWirelessAndWiredNetwork.wirelessHost2.ipv4.ip packetDropNoRouteFound:count 0
attr interpolationmode none
attr source packetDropReasonIsNoRouteFound(packetDropped)
attr title "packet drop: no route found, count"
scalar TestWirelessAndWiredNetwork.wirelessHost2.ipv4.ip packetDropNoRouteFound:sum(packetBytes) 0
attr interpolationmode none
attr source packetDropReasonIsNoRouteFound(packetDropped)
attr title "packet drop: no route found, sum(packetBytes)"
scalar TestWirelessAndWiredNetwork.wirelessHost2.ipv4.ip packetDropUndefined:count 0
attr interpolationmode none
attr source packetDropReasonIsUndefined(packetDropped)
attr title "packet drop: undefined, count"
scalar TestWirelessAndWiredNetwork.wirelessHost2.ipv4.ip packetDropUndefined:sum(packetBytes) 0
attr interpolationmode none
attr source packetDropReasonIsUndefined(packetDropped)
attr title "packet drop: undefined, sum(packetBytes)"
scalar TestWirelessAndWiredNetwork.wirelessHost2.ipv4.arp arpReplySent:count 0
attr source arpReplySent
attr title "ARP replies sent, count"
scalar TestWirelessAndWiredNetwork.wirelessHost2.ipv4.arp arpReplySent:sum(packetBytes) 0
attr source arpReplySent
attr title "ARP replies sent, sum(packetBytes)"
scalar TestWirelessAndWiredNetwork.wirelessHost2.ipv4.arp arpRequestSent:count 1
attr source arpRequestSent
attr title "ARP request sent, count"
scalar TestWirelessAndWiredNetwork.wirelessHost2.ipv4.arp arpRequestSent:sum(packetBytes) 28
attr source arpRequestSent
attr title "ARP request sent, sum(packetBytes)"
scalar TestWirelessAndWiredNetwork.wirelessHost2.ipv4.arp arpResolutionFailed:count 0
attr title "ARP failed resolutions, count"
scalar TestWirelessAndWiredNetwork.wirelessHost2.ipv4.arp arpResolutionCompleted:count 2
attr title "ARP completed resolutions, count"
scalar TestWirelessAndWiredNetwork.wirelessHost2.ipv4.arp arpResolutionInitiated:count 1
attr title "ARP initiated resolutions, count"
scalar TestWirelessAndWiredNetwork.wirelessHost2.udp packetReceived:count 0
attr interpolationmode none
attr source packetReceived
attr title "packets received, count"
scalar TestWirelessAndWiredNetwork.wirelessHost2.udp packetReceived:sum(packetBytes) 0
attr interpolationmode none
attr source packetReceived
attr title "packets received, sum(packetBytes)"
scalar TestWirelessAndWiredNetwork.wirelessHost2.udp packetSent:count 0
attr interpolationmode none
attr source packetSent
attr title "packets sent, count"
scalar TestWirelessAndWiredNetwork.wirelessHost2.udp packetSent:sum(packetBytes) 0
attr interpolationmode none
attr source packetSent
attr title "packets sent, sum(packetBytes)"
scalar TestWirelessAndWiredNetwork.wirelessHost2.udp passedUpPk:count 0
attr interpolationmode none
attr source packetSentToUpper
attr title "packets passed up, count"
scalar TestWirelessAndWiredNetwork.wirelessHost2.udp droppedPkWrongPort:count 0
attr interpolationmode none
attr source packetDropReasonIsNoPortFound(packetDropped)
attr title "packets dropped (wrong port), count"
scalar TestWirelessAndWiredNetwork.wirelessHost2.udp droppedPkBadChecksum:count 0
attr interpolationmode none
attr source packetDropReasonIsIncorrectlyReceived(packetDropped)
attr title "packets dropped (checksum error), count"
scalar TestWirelessAndWiredNetwork.wirelessHost2.app[0] "Pings sent" 1
scalar TestWirelessAndWiredNetwork.wirelessHost2.app[0] "ping loss rate (%)" 100
scalar TestWirelessAndWiredNetwork.wirelessHost2.app[0] "ping out-of-order rate (%)" 0
scalar TestWirelessAndWiredNetwork.wirelessHost2.app[0] pingRxSeq:count 0
attr interpolationmode none
attr title "ping rx seq, count"
scalar TestWirelessAndWiredNetwork.wirelessHost2.app[0] pingTxSeq:count 1
attr interpolationmode none
attr title "ping tx seq, count"
scalar TestWirelessAndWiredNetwork.wirelessHost2.app[0] numOutOfOrderArrivals:last nan
attr interpolationmode none
attr title "ping out-of-order arrivals, last"
scalar TestWirelessAndWiredNetwork.wirelessHost2.app[0] numLost:last nan
attr interpolationmode none
attr title "pings lost, last"
statistic TestWirelessAndWiredNetwork.wirelessHost2.app[0] rtt:histogram
field count 0
field mean nan
field stddev nan
field min nan
field max nan
field sum 0
field sqrsum 0
attr interpolationmode none
attr title "ping round-trip time, histogram"
attr unit s
bin	-inf	0
bin	0	0
bin	1	0

