version 2
run TestL2Deploy-0-20200910-12:27:01-9740
attr configname TestL2Deploy
attr datetime 20200910-12:27:01
attr experiment TestL2Deploy
attr inifile test.ini
attr iterationvars ""
attr iterationvarsf ""
attr measurement ""
attr network TestL2Deploy
attr processid 9740
attr repetition 0
attr replication #0
attr resultdir results
attr runnumber 0
attr seedset 0
param *.visualizer.*.interfaceTableVisualizer.nodeFilter "\"not (switch*)\""
param *.*host.numApps 1
param *.sendhost.app[0].typename "\"TcpSessionApp\""
param *.sendhost.app[0].connectAddress "\"recvhost\""
param *.sendhost.app[0].connectPort 1234
param *.sendhost.app[0].sendBytes 300kB
param *.recvhost.app[0].typename "\"TcpSinkApp\""
param *.recvhost.app[0].localPort 1234
param *.configurator.addStaticRoutes false
param *.configurator.addSubnetRoutes false
param *.configurator.addDefaultRoutes false
param *.configurator.config "xml(\"<config> \t\t\t\t\t\t\t\t<interface hosts='sendhost' names='eth0' address='10.1.1.2' netmask='255.255.255.0'/> \t\t\t\t\t\t\t\t<interface hosts='recvhost' names='eth0' address='10.1.3.2' netmask='255.255.255.0'/> \t\t\t\t\t\t\t\t<interface hosts='mitigator' names='eth0' address='10.1.1.1' netmask='255.255.255.0'/> \t\t\t\t\t\t\t\t<interface hosts='mitigator' names='eth1' address='10.1.2.1' netmask='255.255.255.0'/> \t\t\t\t\t\t\t\t<interface hosts='router1' names='eth0' address='10.1.2.2' netmask='255.255.255.0'/> \t\t\t\t\t\t\t\t<interface hosts='router1' names='eth1' address='10.1.3.1' netmask='255.255.255.0'/> \t\t\t\t\t\t\t\t<route hosts='mitigator' destination='10.1.3.2' netmask='255.255.255.255' gateway='router1' interface='eth1' metric='60'/> \t\t\t\t\t\t\t\t<route hosts='router1' destination='10.1.1.2' netmask='255.255.255.255' gateway='sendhost' interface='eth0' metric='60'/> \t\t\t\t\t\t\t\t<route hosts='sendhost' destination='*' gateway='mitigator' interface='eth0' metric='60'/> \t\t\t\t\t\t\t\t<route hosts='recvhost' destination='*' gateway='router1' interface='eth0' metric='60'/> \t\t\t\t\t\t\t</config>\")"
param *.*.eth[*].qEncap.typename "\"Ieee8021qEncap\""
param *.switch1.eth[0].qEncap.inboundVlanIdFilter "\"-1\""
param *.switch1.eth[0].qEncap.inboundVlanIdMap "\"-1 2\""
param *.switch1.eth[0].qEncap.outboundVlanIdFilter "\"2\""
param *.switch1.eth[0].qEncap.outboundVlanIdMap "\"2 -1\""
param *.switch1.eth[1].qEncap.inboundVlanIdFilter "\"-1\""
param *.switch1.eth[1].qEncap.inboundVlanIdMap "\"-1 2\""
param *.switch1.eth[1].qEncap.outboundVlanIdFilter "\"2\""
param *.switch1.eth[1].qEncap.outboundVlanIdMap "\"2 -1\""
param *.switch1.eth[2].qEncap.inboundVlanIdFilter "\"-1\""
param *.switch1.eth[2].qEncap.inboundVlanIdMap "\"-1 3\""
param *.switch1.eth[2].qEncap.outboundVlanIdFilter "\"3\""
param *.switch1.eth[2].qEncap.outboundVlanIdMap "\"3 -1\""
param *.switch1.eth[3].qEncap.inboundVlanIdFilter "\"-1\""
param *.switch1.eth[3].qEncap.inboundVlanIdMap "\"-1 3\""
param *.switch1.eth[3].qEncap.outboundVlanIdFilter "\"3\""
param *.switch1.eth[3].qEncap.outboundVlanIdMap "\"3 -1\""
param *.visualizer.*.interfaceTableVisualizer.displayInterfaceTables true

scalar TestL2Deploy.sendhost.lo[0].lo rcvdPkFromHl:count 0
attr interpolationmode none
attr source packetReceivedFromUpper
attr title "packets received from higher layer, count"
scalar TestL2Deploy.sendhost.lo[0].lo rcvdPkFromHl:sum(packetBytes) 0
attr interpolationmode none
attr source packetReceivedFromUpper
attr title "packets received from higher layer, sum(packetBytes)"
scalar TestL2Deploy.sendhost.lo[0].lo passedUpPk:count 0
attr interpolationmode none
attr source packetSentToUpper
attr title "packets passed to higher layer, count"
scalar TestL2Deploy.sendhost.lo[0].lo passedUpPk:sum(packetBytes) 0
attr interpolationmode none
attr source packetSentToUpper
attr title "packets passed to higher layer, sum(packetBytes)"
scalar TestL2Deploy.sendhost.eth[0].mac.queue packetPopped:count 4
attr interpolationmode none
attr title "packet popped, count"
scalar TestL2Deploy.sendhost.eth[0].mac.queue packetPopped:sum(packetBytes) 786
attr interpolationmode none
attr title "packet popped, sum(packetBytes)"
statistic TestL2Deploy.sendhost.eth[0].mac.queue queueingTime:histogram
field count 4
field mean 1.68e-006
field stddev 3.36e-006
field min 0
field max 6.72e-006
field sum 6.72e-006
field sqrsum 4.51584e-011
attr interpolationmode none
attr source queueingTime(packetPopped)
attr title "queueing times, histogram"
attr unit s
bin	-inf	0
bin	0	3
bin	1e-007	0
bin	2e-007	0
bin	3e-007	0
bin	4e-007	0
bin	5e-007	0
bin	6e-007	0
bin	7e-007	0
bin	8e-007	0
bin	9e-007	0
bin	1e-006	0
bin	1.1e-006	0
bin	1.2e-006	0
bin	1.3e-006	0
bin	1.4e-006	0
bin	1.5e-006	0
bin	1.6e-006	0
bin	1.7e-006	0
bin	1.8e-006	0
bin	1.9e-006	0
bin	2e-006	0
bin	2.1e-006	0
bin	2.2e-006	0
bin	2.3e-006	0
bin	2.4e-006	0
bin	2.5e-006	0
bin	2.6e-006	0
bin	2.7e-006	0
bin	2.8e-006	0
bin	2.9e-006	0
bin	3e-006	0
bin	3.1e-006	0
bin	3.2e-006	0
bin	3.3e-006	0
bin	3.4e-006	0
bin	3.5e-006	0
bin	3.6e-006	0
bin	3.7e-006	0
bin	3.8e-006	0
bin	3.9e-006	0
bin	4e-006	0
bin	4.1e-006	0
bin	4.2e-006	0
bin	4.3e-006	0
bin	4.4e-006	0
bin	4.5e-006	0
bin	4.6e-006	0
bin	4.7e-006	0
bin	4.8e-006	0
bin	4.9e-006	0
bin	5e-006	0
bin	5.1e-006	0
bin	5.2e-006	0
bin	5.3e-006	0
bin	5.4e-006	0
bin	5.5e-006	0
bin	5.6e-006	0
bin	5.7e-006	0
bin	5.8e-006	0
bin	5.9e-006	0
bin	6e-006	0
bin	6.1e-006	0
bin	6.2e-006	0
bin	6.3e-006	0
bin	6.4e-006	0
bin	6.5e-006	0
bin	6.6e-006	0
bin	6.7e-006	1
bin	6.8e-006	0
bin	6.9e-006	0
bin	7e-006	0
bin	7.1e-006	0
bin	7.2e-006	0
bin	7.3e-006	0
bin	7.4e-006	0
bin	7.5e-006	0
bin	7.6e-006	0
bin	7.7e-006	0
bin	7.8e-006	0
bin	7.9e-006	0
bin	8e-006	0
bin	8.1e-006	0
bin	8.2e-006	0
bin	8.3e-006	0
bin	8.4e-006	0
scalar TestL2Deploy.sendhost.eth[0].mac.queue queueLength:max 1
attr interpolationmode sample-hold
attr source "count(packetPushed) - count(packetPopped) - count(packetRemoved) - count(packetDropped)"
attr title "queue length, max"
scalar TestL2Deploy.sendhost.eth[0].mac.queue queueLength:timeavg 0.018865075910314
attr interpolationmode sample-hold
attr source "count(packetPushed) - count(packetPopped) - count(packetRemoved) - count(packetDropped)"
attr title "queue length, timeavg"
scalar TestL2Deploy.sendhost.eth[0].mac.queue packetPushed:count 4
attr interpolationmode none
attr title "packet pushed, count"
scalar TestL2Deploy.sendhost.eth[0].mac.queue packetPushed:sum(packetBytes) 786
attr interpolationmode none
attr title "packet pushed, sum(packetBytes)"
scalar TestL2Deploy.sendhost.eth[0].mac.queue packetDropQueueOverflow:count 0
attr interpolationmode none
attr source packetDropReasonIsQueueOverflow(packetDropped)
attr title "packet drops: queue overflow, count"
scalar TestL2Deploy.sendhost.eth[0].mac.queue packetDropQueueOverflow:sum(packetBytes) 0
attr interpolationmode none
attr source packetDropReasonIsQueueOverflow(packetDropped)
attr title "packet drops: queue overflow, sum(packetBytes)"
scalar TestL2Deploy.sendhost.eth[0].mac.queue packetRemoved:count 0
attr interpolationmode none
attr title "packets removed, count"
scalar TestL2Deploy.sendhost.eth[0].mac.queue packetRemoved:sum(packetBytes) 0
attr interpolationmode none
attr title "packets removed, sum(packetBytes)"
scalar TestL2Deploy.sendhost.eth[0].mac "simulated time" 1.00035621378
scalar TestL2Deploy.sendhost.eth[0].mac full-duplex 1
scalar TestL2Deploy.sendhost.eth[0].mac "frames/sec sent" 3.9985756522523
scalar TestL2Deploy.sendhost.eth[0].mac "frames/sec rcvd" 1.9992878261261
scalar TestL2Deploy.sendhost.eth[0].mac "bits/sec sent" 6285.7609253406
scalar TestL2Deploy.sendhost.eth[0].mac "bits/sec rcvd" 1023.6353669766
scalar TestL2Deploy.sendhost.eth[0].mac "rx channel idle (%)" 100
scalar TestL2Deploy.sendhost.eth[0].mac "rx channel utilization (%)" 0
scalar TestL2Deploy.sendhost.eth[0].mac txPk:count 4
attr interpolationmode none
attr source packetSentToLower
attr title "packets transmitted, count"
scalar TestL2Deploy.sendhost.eth[0].mac txPk:sum(packetBytes) 786
attr interpolationmode none
attr source packetSentToLower
attr title "packets transmitted, sum(packetBytes)"
scalar TestL2Deploy.sendhost.eth[0].mac packetReceivedFromUpper:count 4
attr interpolationmode none
attr source packetReceivedFromUpper
attr title "packet bytes from higher layer, count"
scalar TestL2Deploy.sendhost.eth[0].mac packetReceivedFromUpper:sum(packetBytes) 760
attr interpolationmode none
attr source packetReceivedFromUpper
attr title "packet bytes from higher layer, sum(packetBytes)"
scalar TestL2Deploy.sendhost.eth[0].mac passedUpPk:count 2
attr interpolationmode none
attr source packetSentToUpper
attr title "packets passed to higher layer, count"
scalar TestL2Deploy.sendhost.eth[0].mac passedUpPk:sum(packetBytes) 128
attr interpolationmode none
attr source packetSentToUpper
attr title "packets passed to higher layer, sum(packetBytes)"
scalar TestL2Deploy.sendhost.eth[0].mac packetDropIncorrectlyReceived:count 0
attr interpolationmode none
attr source packetDropReasonIsIncorrectlyReceived(packetDropped)
attr title "packet drop: incorrectly received, count"
scalar TestL2Deploy.sendhost.eth[0].mac packetDropIncorrectlyReceived:sum(packetBytes) 0
attr interpolationmode none
attr source packetDropReasonIsIncorrectlyReceived(packetDropped)
attr title "packet drop: incorrectly received, sum(packetBytes)"
scalar TestL2Deploy.sendhost.eth[0].mac packetDropInterfaceDown:count 0
attr interpolationmode none
attr source packetDropReasonIsInterfaceDown(packetDropped)
attr title "packet drop: interface down, count"
scalar TestL2Deploy.sendhost.eth[0].mac packetDropInterfaceDown:sum(packetBytes) 0
attr interpolationmode none
attr source packetDropReasonIsInterfaceDown(packetDropped)
attr title "packet drop: interface down, sum(packetBytes)"
scalar TestL2Deploy.sendhost.eth[0].mac packetDropNotAddressedToUs:count 0
attr interpolationmode none
attr source packetDropReasonIsNotAddressedToUs(packetDropped)
attr title "packet drop: not addressed to us, count"
scalar TestL2Deploy.sendhost.eth[0].mac packetDropNotAddressedToUs:sum(packetBytes) 0
attr interpolationmode none
attr source packetDropReasonIsNotAddressedToUs(packetDropped)
attr title "packet drop: not addressed to us, sum(packetBytes)"
scalar TestL2Deploy.sendhost.eth[0].mac rxPausePkUnits:count 0
attr interpolationmode none
attr title "pause units received, count"
scalar TestL2Deploy.sendhost.eth[0].mac rxPausePkUnits:sum 0
attr interpolationmode none
attr title "pause units received, sum"
scalar TestL2Deploy.sendhost.eth[0].mac txPausePkUnits:count 0
attr interpolationmode none
attr title "pause units sent, count"
scalar TestL2Deploy.sendhost.eth[0].mac txPausePkUnits:sum 0
attr interpolationmode none
attr title "pause units sent, sum"
scalar TestL2Deploy.sendhost.eth[0].mac rxPkOk:count 2
attr interpolationmode none
attr source rxPkOk
attr title "packets received OK, count"
scalar TestL2Deploy.sendhost.eth[0].mac rxPkOk:sum(packetBytes) 128
attr interpolationmode none
attr source rxPkOk
attr title "packets received OK, sum(packetBytes)"
scalar TestL2Deploy.sendhost.eth[0].encap pauseSent:count 0
attr title "pause sent, count"
scalar TestL2Deploy.sendhost.eth[0].encap pauseSent:sum 0
attr title "pause sent, sum"
scalar TestL2Deploy.sendhost.eth[0].encap decapPk:count 2
attr interpolationmode none
attr source decapPk
attr title "packets decapsulated, count"
scalar TestL2Deploy.sendhost.eth[0].encap decapPk:sum(packetBytes) 92
attr interpolationmode none
attr source decapPk
attr title "packets decapsulated, sum(packetBytes)"
scalar TestL2Deploy.sendhost.eth[0].encap encapPk:count 4
attr interpolationmode none
attr source encapPk
attr title "packets encapsulated, count"
scalar TestL2Deploy.sendhost.eth[0].encap encapPk:sum(packetBytes) 688
attr interpolationmode none
attr source encapPk
attr title "packets encapsulated, sum(packetBytes)"
scalar TestL2Deploy.sendhost.eth[0].qEncap packetDropped:count 0
attr interpolationmode none
attr source packetDropped
attr title "packet dropped, count"
scalar TestL2Deploy.sendhost.eth[0].qEncap packetDropped:sum(packetBytes) 0
attr interpolationmode none
attr source packetDropped
attr title "packet dropped, sum(packetBytes)"
scalar TestL2Deploy.sendhost.ipv4.ip packetDropAddressResolutionFailed:count 0
attr interpolationmode none
attr source packetDropReasonIsAddressResolutionFailed(packetDropped)
attr title "packet drop: address resolution failed, count"
scalar TestL2Deploy.sendhost.ipv4.ip packetDropAddressResolutionFailed:sum(packetBytes) 0
attr interpolationmode none
attr source packetDropReasonIsAddressResolutionFailed(packetDropped)
attr title "packet drop: address resolution failed, sum(packetBytes)"
scalar TestL2Deploy.sendhost.ipv4.ip packetDropHopLimitReached:count 0
attr interpolationmode none
attr source packetDropReasonIsHopLimitReached(packetDropped)
attr title "packet drop: hop limit reached, count"
scalar TestL2Deploy.sendhost.ipv4.ip packetDropHopLimitReached:sum(packetBytes) 0
attr interpolationmode none
attr source packetDropReasonIsHopLimitReached(packetDropped)
attr title "packet drop: hop limit reached, sum(packetBytes)"
scalar TestL2Deploy.sendhost.ipv4.ip packetDropForwardingDisabled:count 0
attr interpolationmode none
attr source packetDropReasonIsForwardingDisabled(packetDropped)
attr title "packet drop: forwarding disabled, count"
scalar TestL2Deploy.sendhost.ipv4.ip packetDropForwardingDisabled:sum(packetBytes) 0
attr interpolationmode none
attr source packetDropReasonIsForwardingDisabled(packetDropped)
attr title "packet drop: forwarding disabled, sum(packetBytes)"
scalar TestL2Deploy.sendhost.ipv4.ip packetDropNoInterfaceFound:count 0
attr interpolationmode none
attr source packetDropReasonIsNoInterfaceFound(packetDropped)
attr title "packet drop: no interface found, count"
scalar TestL2Deploy.sendhost.ipv4.ip packetDropNoInterfaceFound:sum(packetBytes) 0
attr interpolationmode none
attr source packetDropReasonIsNoInterfaceFound(packetDropped)
attr title "packet drop: no interface found, sum(packetBytes)"
scalar TestL2Deploy.sendhost.ipv4.ip packetDropNoRouteFound:count 0
attr interpolationmode none
attr source packetDropReasonIsNoRouteFound(packetDropped)
attr title "packet drop: no route found, count"
scalar TestL2Deploy.sendhost.ipv4.ip packetDropNoRouteFound:sum(packetBytes) 0
attr interpolationmode none
attr source packetDropReasonIsNoRouteFound(packetDropped)
attr title "packet drop: no route found, sum(packetBytes)"
scalar TestL2Deploy.sendhost.ipv4.ip packetDropUndefined:count 0
attr interpolationmode none
attr source packetDropReasonIsUndefined(packetDropped)
attr title "packet drop: undefined, count"
scalar TestL2Deploy.sendhost.ipv4.ip packetDropUndefined:sum(packetBytes) 0
attr interpolationmode none
attr source packetDropReasonIsUndefined(packetDropped)
attr title "packet drop: undefined, sum(packetBytes)"
scalar TestL2Deploy.sendhost.ipv4.arp arpReplySent:count 0
attr source arpReplySent
attr title "ARP replies sent, count"
scalar TestL2Deploy.sendhost.ipv4.arp arpReplySent:sum(packetBytes) 0
attr source arpReplySent
attr title "ARP replies sent, sum(packetBytes)"
scalar TestL2Deploy.sendhost.ipv4.arp arpRequestSent:count 1
attr source arpRequestSent
attr title "ARP request sent, count"
scalar TestL2Deploy.sendhost.ipv4.arp arpRequestSent:sum(packetBytes) 28
attr source arpRequestSent
attr title "ARP request sent, sum(packetBytes)"
scalar TestL2Deploy.sendhost.ipv4.arp arpResolutionFailed:count 0
attr title "ARP failed resolutions, count"
scalar TestL2Deploy.sendhost.ipv4.arp arpResolutionCompleted:count 1
attr title "ARP completed resolutions, count"
scalar TestL2Deploy.sendhost.ipv4.arp arpResolutionInitiated:count 1
attr title "ARP initiated resolutions, count"
scalar TestL2Deploy.sendhost.udp packetReceived:count 0
attr interpolationmode none
attr source packetReceived
attr title "packets received, count"
scalar TestL2Deploy.sendhost.udp packetReceived:sum(packetBytes) 0
attr interpolationmode none
attr source packetReceived
attr title "packets received, sum(packetBytes)"
scalar TestL2Deploy.sendhost.udp packetSent:count 0
attr interpolationmode none
attr source packetSent
attr title "packets sent, count"
scalar TestL2Deploy.sendhost.udp packetSent:sum(packetBytes) 0
attr interpolationmode none
attr source packetSent
attr title "packets sent, sum(packetBytes)"
scalar TestL2Deploy.sendhost.udp passedUpPk:count 0
attr interpolationmode none
attr source packetSentToUpper
attr title "packets passed up, count"
scalar TestL2Deploy.sendhost.udp droppedPkWrongPort:count 0
attr interpolationmode none
attr source packetDropReasonIsNoPortFound(packetDropped)
attr title "packets dropped (wrong port), count"
scalar TestL2Deploy.sendhost.udp droppedPkBadChecksum:count 0
attr interpolationmode none
attr source packetDropReasonIsIncorrectlyReceived(packetDropped)
attr title "packets dropped (checksum error), count"
scalar TestL2Deploy.sendhost.app[0] bytesRcvd 0
scalar TestL2Deploy.sendhost.app[0] bytesSent 300000
scalar TestL2Deploy.sendhost.app[0] packetReceived:count 0
attr interpolationmode none
attr source packetReceived
attr title "packets received, count"
scalar TestL2Deploy.sendhost.app[0] packetReceived:sum(packetBytes) 0
attr interpolationmode none
attr source packetReceived
attr title "packets received, sum(packetBytes)"
statistic TestL2Deploy.sendhost.app[0] endToEndDelay:histogram
field count 0
field mean nan
field stddev nan
field min nan
field max nan
field sum 0
field sqrsum 0
attr interpolationmode none
attr source dataAge(packetReceived)
attr title "end-to-end delay, histogram"
attr unit s
bin	-inf	0
bin	0	0
bin	1	0
statistic TestL2Deploy.sendhost.app[0] endToEndDelay:weightedHistogram
field count 0
field mean nan
field stddev nan
field min nan
field max nan
field weights 0
field weightedSum 0
field sqrSumWeights 0
field weightedSqrSum 0
attr interpolationmode none
attr source dataAge(packetReceived)
attr title "end-to-end delay, weightedHistogram"
attr unit s
bin	-inf	0
bin	0	0
bin	1	0
scalar TestL2Deploy.sendhost.app[0] packetSent:count 1
attr interpolationmode none
attr source packetSent
attr title "packets sent, count"
scalar TestL2Deploy.sendhost.app[0] packetSent:sum(packetBytes) 300000
attr interpolationmode none
attr source packetSent
attr title "packets sent, sum(packetBytes)"
scalar TestL2Deploy.recvhost.lo[0].lo rcvdPkFromHl:count 0
attr interpolationmode none
attr source packetReceivedFromUpper
attr title "packets received from higher layer, count"
scalar TestL2Deploy.recvhost.lo[0].lo rcvdPkFromHl:sum(packetBytes) 0
attr interpolationmode none
attr source packetReceivedFromUpper
attr title "packets received from higher layer, sum(packetBytes)"
scalar TestL2Deploy.recvhost.lo[0].lo passedUpPk:count 0
attr interpolationmode none
attr source packetSentToUpper
attr title "packets passed to higher layer, count"
scalar TestL2Deploy.recvhost.lo[0].lo passedUpPk:sum(packetBytes) 0
attr interpolationmode none
attr source packetSentToUpper
attr title "packets passed to higher layer, sum(packetBytes)"
scalar TestL2Deploy.recvhost.eth[0].mac.queue packetPopped:count 2
attr interpolationmode none
attr title "packet popped, count"
scalar TestL2Deploy.recvhost.eth[0].mac.queue packetPopped:sum(packetBytes) 128
attr interpolationmode none
attr title "packet popped, sum(packetBytes)"
statistic TestL2Deploy.recvhost.eth[0].mac.queue queueingTime:histogram
field count 2
field mean 0
field stddev 0
field min 0
field max 0
field sum 0
field sqrsum 0
attr interpolationmode none
attr source queueingTime(packetPopped)
attr title "queueing times, histogram"
attr unit s
bin	-inf	0
bin	-0.5	0
bin	-0.48	0
bin	-0.46	0
bin	-0.44	0
bin	-0.42	0
bin	-0.4	0
bin	-0.38	0
bin	-0.36	0
bin	-0.34	0
bin	-0.32	0
bin	-0.3	0
bin	-0.28	0
bin	-0.26	0
bin	-0.24	0
bin	-0.22	0
bin	-0.2	0
bin	-0.18	0
bin	-0.16	0
bin	-0.14	0
bin	-0.12	0
bin	-0.1	0
bin	-0.08	0
bin	-0.06	0
bin	-0.04	0
bin	-0.02	0
bin	0	2
bin	0.02	0
bin	0.04	0
bin	0.06	0
bin	0.08	0
bin	0.1	0
bin	0.12	0
bin	0.14	0
bin	0.16	0
bin	0.18	0
bin	0.2	0
bin	0.22	0
bin	0.24	0
bin	0.26	0
bin	0.28	0
bin	0.3	0
bin	0.32	0
bin	0.34	0
bin	0.36	0
bin	0.38	0
bin	0.4	0
bin	0.42	0
bin	0.44	0
bin	0.46	0
bin	0.48	0
bin	0.5	0
scalar TestL2Deploy.recvhost.eth[0].mac.queue queueLength:max 1
attr interpolationmode sample-hold
attr source "count(packetPushed) - count(packetPopped) - count(packetRemoved) - count(packetDropped)"
attr title "queue length, max"
scalar TestL2Deploy.recvhost.eth[0].mac.queue queueLength:timeavg 0
attr interpolationmode sample-hold
attr source "count(packetPushed) - count(packetPopped) - count(packetRemoved) - count(packetDropped)"
attr title "queue length, timeavg"
scalar TestL2Deploy.recvhost.eth[0].mac.queue packetPushed:count 2
attr interpolationmode none
attr title "packet pushed, count"
scalar TestL2Deploy.recvhost.eth[0].mac.queue packetPushed:sum(packetBytes) 128
attr interpolationmode none
attr title "packet pushed, sum(packetBytes)"
scalar TestL2Deploy.recvhost.eth[0].mac.queue packetDropQueueOverflow:count 0
attr interpolationmode none
attr source packetDropReasonIsQueueOverflow(packetDropped)
attr title "packet drops: queue overflow, count"
scalar TestL2Deploy.recvhost.eth[0].mac.queue packetDropQueueOverflow:sum(packetBytes) 0
attr interpolationmode none
attr source packetDropReasonIsQueueOverflow(packetDropped)
attr title "packet drops: queue overflow, sum(packetBytes)"
scalar TestL2Deploy.recvhost.eth[0].mac.queue packetRemoved:count 0
attr interpolationmode none
attr title "packets removed, count"
scalar TestL2Deploy.recvhost.eth[0].mac.queue packetRemoved:sum(packetBytes) 0
attr interpolationmode none
attr title "packets removed, sum(packetBytes)"
scalar TestL2Deploy.recvhost.eth[0].mac "simulated time" 1.00035621378
scalar TestL2Deploy.recvhost.eth[0].mac full-duplex 1
scalar TestL2Deploy.recvhost.eth[0].mac "frames/sec sent" 1.9992878261261
scalar TestL2Deploy.recvhost.eth[0].mac "frames/sec rcvd" 2.9989317391892
scalar TestL2Deploy.recvhost.eth[0].mac "bits/sec sent" 1023.6353669766
scalar TestL2Deploy.recvhost.eth[0].mac "bits/sec rcvd" 1535.4530504649
scalar TestL2Deploy.recvhost.eth[0].mac "rx channel idle (%)" 100
scalar TestL2Deploy.recvhost.eth[0].mac "rx channel utilization (%)" 0
scalar TestL2Deploy.recvhost.eth[0].mac txPk:count 2
attr interpolationmode none
attr source packetSentToLower
attr title "packets transmitted, count"
scalar TestL2Deploy.recvhost.eth[0].mac txPk:sum(packetBytes) 128
attr interpolationmode none
attr source packetSentToLower
attr title "packets transmitted, sum(packetBytes)"
scalar TestL2Deploy.recvhost.eth[0].mac packetReceivedFromUpper:count 2
attr interpolationmode none
attr source packetReceivedFromUpper
attr title "packet bytes from higher layer, count"
scalar TestL2Deploy.recvhost.eth[0].mac packetReceivedFromUpper:sum(packetBytes) 108
attr interpolationmode none
attr source packetReceivedFromUpper
attr title "packet bytes from higher layer, sum(packetBytes)"
scalar TestL2Deploy.recvhost.eth[0].mac passedUpPk:count 3
attr interpolationmode none
attr source packetSentToUpper
attr title "packets passed to higher layer, count"
scalar TestL2Deploy.recvhost.eth[0].mac passedUpPk:sum(packetBytes) 192
attr interpolationmode none
attr source packetSentToUpper
attr title "packets passed to higher layer, sum(packetBytes)"
scalar TestL2Deploy.recvhost.eth[0].mac packetDropIncorrectlyReceived:count 0
attr interpolationmode none
attr source packetDropReasonIsIncorrectlyReceived(packetDropped)
attr title "packet drop: incorrectly received, count"
scalar TestL2Deploy.recvhost.eth[0].mac packetDropIncorrectlyReceived:sum(packetBytes) 0
attr interpolationmode none
attr source packetDropReasonIsIncorrectlyReceived(packetDropped)
attr title "packet drop: incorrectly received, sum(packetBytes)"
scalar TestL2Deploy.recvhost.eth[0].mac packetDropInterfaceDown:count 0
attr interpolationmode none
attr source packetDropReasonIsInterfaceDown(packetDropped)
attr title "packet drop: interface down, count"
scalar TestL2Deploy.recvhost.eth[0].mac packetDropInterfaceDown:sum(packetBytes) 0
attr interpolationmode none
attr source packetDropReasonIsInterfaceDown(packetDropped)
attr title "packet drop: interface down, sum(packetBytes)"
scalar TestL2Deploy.recvhost.eth[0].mac packetDropNotAddressedToUs:count 0
attr interpolationmode none
attr source packetDropReasonIsNotAddressedToUs(packetDropped)
attr title "packet drop: not addressed to us, count"
scalar TestL2Deploy.recvhost.eth[0].mac packetDropNotAddressedToUs:sum(packetBytes) 0
attr interpolationmode none
attr source packetDropReasonIsNotAddressedToUs(packetDropped)
attr title "packet drop: not addressed to us, sum(packetBytes)"
scalar TestL2Deploy.recvhost.eth[0].mac rxPausePkUnits:count 0
attr interpolationmode none
attr title "pause units received, count"
scalar TestL2Deploy.recvhost.eth[0].mac rxPausePkUnits:sum 0
attr interpolationmode none
attr title "pause units received, sum"
scalar TestL2Deploy.recvhost.eth[0].mac txPausePkUnits:count 0
attr interpolationmode none
attr title "pause units sent, count"
scalar TestL2Deploy.recvhost.eth[0].mac txPausePkUnits:sum 0
attr interpolationmode none
attr title "pause units sent, sum"
scalar TestL2Deploy.recvhost.eth[0].mac rxPkOk:count 3
attr interpolationmode none
attr source rxPkOk
attr title "packets received OK, count"
scalar TestL2Deploy.recvhost.eth[0].mac rxPkOk:sum(packetBytes) 192
attr interpolationmode none
attr source rxPkOk
attr title "packets received OK, sum(packetBytes)"
scalar TestL2Deploy.recvhost.eth[0].encap pauseSent:count 0
attr title "pause sent, count"
scalar TestL2Deploy.recvhost.eth[0].encap pauseSent:sum 0
attr title "pause sent, sum"
scalar TestL2Deploy.recvhost.eth[0].encap decapPk:count 3
attr interpolationmode none
attr source decapPk
attr title "packets decapsulated, count"
scalar TestL2Deploy.recvhost.eth[0].encap decapPk:sum(packetBytes) 138
attr interpolationmode none
attr source decapPk
attr title "packets decapsulated, sum(packetBytes)"
scalar TestL2Deploy.recvhost.eth[0].encap encapPk:count 2
attr interpolationmode none
attr source encapPk
attr title "packets encapsulated, count"
scalar TestL2Deploy.recvhost.eth[0].encap encapPk:sum(packetBytes) 72
attr interpolationmode none
attr source encapPk
attr title "packets encapsulated, sum(packetBytes)"
scalar TestL2Deploy.recvhost.eth[0].qEncap packetDropped:count 0
attr interpolationmode none
attr source packetDropped
attr title "packet dropped, count"
scalar TestL2Deploy.recvhost.eth[0].qEncap packetDropped:sum(packetBytes) 0
attr interpolationmode none
attr source packetDropped
attr title "packet dropped, sum(packetBytes)"
scalar TestL2Deploy.recvhost.ipv4.ip packetDropAddressResolutionFailed:count 0
attr interpolationmode none
attr source packetDropReasonIsAddressResolutionFailed(packetDropped)
attr title "packet drop: address resolution failed, count"
scalar TestL2Deploy.recvhost.ipv4.ip packetDropAddressResolutionFailed:sum(packetBytes) 0
attr interpolationmode none
attr source packetDropReasonIsAddressResolutionFailed(packetDropped)
attr title "packet drop: address resolution failed, sum(packetBytes)"
scalar TestL2Deploy.recvhost.ipv4.ip packetDropHopLimitReached:count 0
attr interpolationmode none
attr source packetDropReasonIsHopLimitReached(packetDropped)
attr title "packet drop: hop limit reached, count"
scalar TestL2Deploy.recvhost.ipv4.ip packetDropHopLimitReached:sum(packetBytes) 0
attr interpolationmode none
attr source packetDropReasonIsHopLimitReached(packetDropped)
attr title "packet drop: hop limit reached, sum(packetBytes)"
scalar TestL2Deploy.recvhost.ipv4.ip packetDropForwardingDisabled:count 0
attr interpolationmode none
attr source packetDropReasonIsForwardingDisabled(packetDropped)
attr title "packet drop: forwarding disabled, count"
scalar TestL2Deploy.recvhost.ipv4.ip packetDropForwardingDisabled:sum(packetBytes) 0
attr interpolationmode none
attr source packetDropReasonIsForwardingDisabled(packetDropped)
attr title "packet drop: forwarding disabled, sum(packetBytes)"
scalar TestL2Deploy.recvhost.ipv4.ip packetDropNoInterfaceFound:count 0
attr interpolationmode none
attr source packetDropReasonIsNoInterfaceFound(packetDropped)
attr title "packet drop: no interface found, count"
scalar TestL2Deploy.recvhost.ipv4.ip packetDropNoInterfaceFound:sum(packetBytes) 0
attr interpolationmode none
attr source packetDropReasonIsNoInterfaceFound(packetDropped)
attr title "packet drop: no interface found, sum(packetBytes)"
scalar TestL2Deploy.recvhost.ipv4.ip packetDropNoRouteFound:count 0
attr interpolationmode none
attr source packetDropReasonIsNoRouteFound(packetDropped)
attr title "packet drop: no route found, count"
scalar TestL2Deploy.recvhost.ipv4.ip packetDropNoRouteFound:sum(packetBytes) 0
attr interpolationmode none
attr source packetDropReasonIsNoRouteFound(packetDropped)
attr title "packet drop: no route found, sum(packetBytes)"
scalar TestL2Deploy.recvhost.ipv4.ip packetDropUndefined:count 0
attr interpolationmode none
attr source packetDropReasonIsUndefined(packetDropped)
attr title "packet drop: undefined, count"
scalar TestL2Deploy.recvhost.ipv4.ip packetDropUndefined:sum(packetBytes) 0
attr interpolationmode none
attr source packetDropReasonIsUndefined(packetDropped)
attr title "packet drop: undefined, sum(packetBytes)"
scalar TestL2Deploy.recvhost.ipv4.arp arpReplySent:count 1
attr source arpReplySent
attr title "ARP replies sent, count"
scalar TestL2Deploy.recvhost.ipv4.arp arpReplySent:sum(packetBytes) 28
attr source arpReplySent
attr title "ARP replies sent, sum(packetBytes)"
scalar TestL2Deploy.recvhost.ipv4.arp arpRequestSent:count 0
attr source arpRequestSent
attr title "ARP request sent, count"
scalar TestL2Deploy.recvhost.ipv4.arp arpRequestSent:sum(packetBytes) 0
attr source arpRequestSent
attr title "ARP request sent, sum(packetBytes)"
scalar TestL2Deploy.recvhost.ipv4.arp arpResolutionFailed:count 0
attr title "ARP failed resolutions, count"
scalar TestL2Deploy.recvhost.ipv4.arp arpResolutionCompleted:count 1
attr title "ARP completed resolutions, count"
scalar TestL2Deploy.recvhost.ipv4.arp arpResolutionInitiated:count 0
attr title "ARP initiated resolutions, count"
scalar TestL2Deploy.recvhost.udp packetReceived:count 0
attr interpolationmode none
attr source packetReceived
attr title "packets received, count"
scalar TestL2Deploy.recvhost.udp packetReceived:sum(packetBytes) 0
attr interpolationmode none
attr source packetReceived
attr title "packets received, sum(packetBytes)"
scalar TestL2Deploy.recvhost.udp packetSent:count 0
attr interpolationmode none
attr source packetSent
attr title "packets sent, count"
scalar TestL2Deploy.recvhost.udp packetSent:sum(packetBytes) 0
attr interpolationmode none
attr source packetSent
attr title "packets sent, sum(packetBytes)"
scalar TestL2Deploy.recvhost.udp passedUpPk:count 0
attr interpolationmode none
attr source packetSentToUpper
attr title "packets passed up, count"
scalar TestL2Deploy.recvhost.udp droppedPkWrongPort:count 0
attr interpolationmode none
attr source packetDropReasonIsNoPortFound(packetDropped)
attr title "packets dropped (wrong port), count"
scalar TestL2Deploy.recvhost.udp droppedPkBadChecksum:count 0
attr interpolationmode none
attr source packetDropReasonIsIncorrectlyReceived(packetDropped)
attr title "packets dropped (checksum error), count"
scalar TestL2Deploy.recvhost.app[0].thread_3 packetReceived:count 0
attr interpolationmode none
attr source packetReceived
attr title "packets received, count"
scalar TestL2Deploy.recvhost.app[0].thread_3 packetReceived:sum(packetBytes) 0
attr interpolationmode none
attr source packetReceived
attr title "packets received, sum(packetBytes)"
statistic TestL2Deploy.recvhost.app[0].thread_3 endToEndDelay:histogram
field count 0
field mean nan
field stddev nan
field min nan
field max nan
field sum 0
field sqrsum 0
attr interpolationmode none
attr source dataAge(packetReceived)
attr title "end-to-end delay, histogram"
attr unit s
bin	-inf	0
bin	0	0
bin	1	0
statistic TestL2Deploy.recvhost.app[0].thread_3 endToEndDelay:weightedHistogram
field count 0
field mean nan
field stddev nan
field min nan
field max nan
field weights 0
field weightedSum 0
field sqrSumWeights 0
field weightedSqrSum 0
attr interpolationmode none
attr source dataAge(packetReceived)
attr title "end-to-end delay, weightedHistogram"
attr unit s
bin	-inf	0
bin	0	0
bin	1	0
scalar TestL2Deploy.recvhost.app[0] bytesRcvd 0
scalar TestL2Deploy.recvhost.app[0] packetReceived:count 0
attr checkSignals false
attr interpolationmode none
attr source packetReceived
attr title "packets received, count"
scalar TestL2Deploy.recvhost.app[0] packetReceived:sum(packetBytes) 0
attr checkSignals false
attr interpolationmode none
attr source packetReceived
attr title "packets received, sum(packetBytes)"
statistic TestL2Deploy.recvhost.app[0] endToEndDelay:histogram
field count 0
field mean nan
field stddev nan
field min nan
field max nan
field sum 0
field sqrsum 0
attr checkSignals false
attr interpolationmode none
attr source dataAge(packetReceived)
attr title "end-to-end delay, histogram"
attr unit s
bin	-inf	0
bin	0	0
bin	1	0
statistic TestL2Deploy.recvhost.app[0] endToEndDelay:weightedHistogram
field count 0
field mean nan
field stddev nan
field min nan
field max nan
field weights 0
field weightedSum 0
field sqrSumWeights 0
field weightedSqrSum 0
attr checkSignals false
attr interpolationmode none
attr source dataAge(packetReceived)
attr title "end-to-end delay, weightedHistogram"
attr unit s
bin	-inf	0
bin	0	0
bin	1	0
scalar TestL2Deploy.switch1.relayUnit "number of received BPDUs from STP module" 0
scalar TestL2Deploy.switch1.relayUnit "number of received frames from network (including BPDUs)" 14
scalar TestL2Deploy.switch1.relayUnit "number of dropped frames (including BPDUs)" 0
scalar TestL2Deploy.switch1.relayUnit "number of delivered BPDUs to the STP module" 0
scalar TestL2Deploy.switch1.relayUnit "number of dispatched BPDU frames to the network" 0
scalar TestL2Deploy.switch1.relayUnit "number of dispatched non-BDPU frames to the network" 20
scalar TestL2Deploy.switch1.eth[0].mac.queue packetPopped:count 2
attr interpolationmode none
attr title "packet popped, count"
scalar TestL2Deploy.switch1.eth[0].mac.queue packetPopped:sum(packetBytes) 128
attr interpolationmode none
attr title "packet popped, sum(packetBytes)"
statistic TestL2Deploy.switch1.eth[0].mac.queue queueingTime:histogram
field count 2
field mean 0
field stddev 0
field min 0
field max 0
field sum 0
field sqrsum 0
attr interpolationmode none
attr source queueingTime(packetPopped)
attr title "queueing times, histogram"
attr unit s
bin	-inf	0
bin	-0.5	0
bin	-0.48	0
bin	-0.46	0
bin	-0.44	0
bin	-0.42	0
bin	-0.4	0
bin	-0.38	0
bin	-0.36	0
bin	-0.34	0
bin	-0.32	0
bin	-0.3	0
bin	-0.28	0
bin	-0.26	0
bin	-0.24	0
bin	-0.22	0
bin	-0.2	0
bin	-0.18	0
bin	-0.16	0
bin	-0.14	0
bin	-0.12	0
bin	-0.1	0
bin	-0.08	0
bin	-0.06	0
bin	-0.04	0
bin	-0.02	0
bin	0	2
bin	0.02	0
bin	0.04	0
bin	0.06	0
bin	0.08	0
bin	0.1	0
bin	0.12	0
bin	0.14	0
bin	0.16	0
bin	0.18	0
bin	0.2	0
bin	0.22	0
bin	0.24	0
bin	0.26	0
bin	0.28	0
bin	0.3	0
bin	0.32	0
bin	0.34	0
bin	0.36	0
bin	0.38	0
bin	0.4	0
bin	0.42	0
bin	0.44	0
bin	0.46	0
bin	0.48	0
bin	0.5	0
scalar TestL2Deploy.switch1.eth[0].mac.queue queueLength:max 1
attr interpolationmode sample-hold
attr source "count(packetPushed) - count(packetPopped) - count(packetRemoved) - count(packetDropped)"
attr title "queue length, max"
scalar TestL2Deploy.switch1.eth[0].mac.queue queueLength:timeavg 0
attr interpolationmode sample-hold
attr source "count(packetPushed) - count(packetPopped) - count(packetRemoved) - count(packetDropped)"
attr title "queue length, timeavg"
scalar TestL2Deploy.switch1.eth[0].mac.queue packetPushed:count 2
attr interpolationmode none
attr title "packet pushed, count"
scalar TestL2Deploy.switch1.eth[0].mac.queue packetPushed:sum(packetBytes) 128
attr interpolationmode none
attr title "packet pushed, sum(packetBytes)"
scalar TestL2Deploy.switch1.eth[0].mac.queue packetDropQueueOverflow:count 0
attr interpolationmode none
attr source packetDropReasonIsQueueOverflow(packetDropped)
attr title "packet drops: queue overflow, count"
scalar TestL2Deploy.switch1.eth[0].mac.queue packetDropQueueOverflow:sum(packetBytes) 0
attr interpolationmode none
attr source packetDropReasonIsQueueOverflow(packetDropped)
attr title "packet drops: queue overflow, sum(packetBytes)"
scalar TestL2Deploy.switch1.eth[0].mac.queue packetRemoved:count 0
attr interpolationmode none
attr title "packets removed, count"
scalar TestL2Deploy.switch1.eth[0].mac.queue packetRemoved:sum(packetBytes) 0
attr interpolationmode none
attr title "packets removed, sum(packetBytes)"
scalar TestL2Deploy.switch1.eth[0].mac "simulated time" 1.00035621378
scalar TestL2Deploy.switch1.eth[0].mac full-duplex 1
scalar TestL2Deploy.switch1.eth[0].mac "frames/sec sent" 1.9992878261261
scalar TestL2Deploy.switch1.eth[0].mac "frames/sec rcvd" 3.9985756522523
scalar TestL2Deploy.switch1.eth[0].mac "bits/sec sent" 1023.6353669766
scalar TestL2Deploy.switch1.eth[0].mac "bits/sec rcvd" 6285.7609253406
scalar TestL2Deploy.switch1.eth[0].mac "rx channel idle (%)" 99.993458330233
scalar TestL2Deploy.switch1.eth[0].mac "rx channel utilization (%)" 0.0065416697670848
scalar TestL2Deploy.switch1.eth[0].mac "rx channel collision (%)" 0
scalar TestL2Deploy.switch1.eth[0].mac collisions 0
scalar TestL2Deploy.switch1.eth[0].mac backoffs 0
scalar TestL2Deploy.switch1.eth[0].mac txPk:count 2
attr interpolationmode none
attr source packetSentToLower
attr title "packets transmitted, count"
scalar TestL2Deploy.switch1.eth[0].mac txPk:sum(packetBytes) 128
attr interpolationmode none
attr source packetSentToLower
attr title "packets transmitted, sum(packetBytes)"
scalar TestL2Deploy.switch1.eth[0].mac packetReceivedFromUpper:count 2
attr interpolationmode none
attr source packetReceivedFromUpper
attr title "packet bytes from higher layer, count"
scalar TestL2Deploy.switch1.eth[0].mac packetReceivedFromUpper:sum(packetBytes) 128
attr interpolationmode none
attr source packetReceivedFromUpper
attr title "packet bytes from higher layer, sum(packetBytes)"
scalar TestL2Deploy.switch1.eth[0].mac passedUpPk:count 4
attr interpolationmode none
attr source packetSentToUpper
attr title "packets passed to higher layer, count"
scalar TestL2Deploy.switch1.eth[0].mac passedUpPk:sum(packetBytes) 786
attr interpolationmode none
attr source packetSentToUpper
attr title "packets passed to higher layer, sum(packetBytes)"
scalar TestL2Deploy.switch1.eth[0].mac packetDropIncorrectlyReceived:count 0
attr interpolationmode none
attr source packetDropReasonIsIncorrectlyReceived(packetDropped)
attr title "packet drop: incorrectly received, count"
scalar TestL2Deploy.switch1.eth[0].mac packetDropIncorrectlyReceived:sum(packetBytes) 0
attr interpolationmode none
attr source packetDropReasonIsIncorrectlyReceived(packetDropped)
attr title "packet drop: incorrectly received, sum(packetBytes)"
scalar TestL2Deploy.switch1.eth[0].mac packetDropInterfaceDown:count 0
attr interpolationmode none
attr source packetDropReasonIsInterfaceDown(packetDropped)
attr title "packet drop: interface down, count"
scalar TestL2Deploy.switch1.eth[0].mac packetDropInterfaceDown:sum(packetBytes) 0
attr interpolationmode none
attr source packetDropReasonIsInterfaceDown(packetDropped)
attr title "packet drop: interface down, sum(packetBytes)"
scalar TestL2Deploy.switch1.eth[0].mac packetDropNotAddressedToUs:count 0
attr interpolationmode none
attr source packetDropReasonIsNotAddressedToUs(packetDropped)
attr title "packet drop: not addressed to us, count"
scalar TestL2Deploy.switch1.eth[0].mac packetDropNotAddressedToUs:sum(packetBytes) 0
attr interpolationmode none
attr source packetDropReasonIsNotAddressedToUs(packetDropped)
attr title "packet drop: not addressed to us, sum(packetBytes)"
scalar TestL2Deploy.switch1.eth[0].mac backoffSlotsGenerated:count 0
attr interpolationmode none
attr title "backoff, count"
scalar TestL2Deploy.switch1.eth[0].mac collision:count 0
attr interpolationmode none
attr title "collision, count"
scalar TestL2Deploy.switch1.eth[0].mac rxPausePkUnits:count 0
attr interpolationmode none
attr title "pause units received, count"
scalar TestL2Deploy.switch1.eth[0].mac rxPausePkUnits:sum 0
attr interpolationmode none
attr title "pause units received, sum"
scalar TestL2Deploy.switch1.eth[0].mac txPausePkUnits:count 0
attr interpolationmode none
attr title "pause units sent, count"
scalar TestL2Deploy.switch1.eth[0].mac txPausePkUnits:sum 0
attr interpolationmode none
attr title "pause units sent, sum"
scalar TestL2Deploy.switch1.eth[0].mac rxPkOk:count 4
attr interpolationmode none
attr source rxPkOk
attr title "packets received OK, count"
scalar TestL2Deploy.switch1.eth[0].mac rxPkOk:sum(packetBytes) 786
attr interpolationmode none
attr source rxPkOk
attr title "packets received OK, sum(packetBytes)"
scalar TestL2Deploy.switch1.eth[0].qEncap packetDropped:count 2
attr interpolationmode none
attr source packetDropped
attr title "packet dropped, count"
scalar TestL2Deploy.switch1.eth[0].qEncap packetDropped:sum(packetBytes) 100
attr interpolationmode none
attr source packetDropped
attr title "packet dropped, sum(packetBytes)"
scalar TestL2Deploy.switch1.eth[1].mac.queue packetPopped:count 4
attr interpolationmode none
attr title "packet popped, count"
scalar TestL2Deploy.switch1.eth[1].mac.queue packetPopped:sum(packetBytes) 786
attr interpolationmode none
attr title "packet popped, sum(packetBytes)"
statistic TestL2Deploy.switch1.eth[1].mac.queue queueingTime:histogram
field count 4
field mean 0
field stddev 0
field min 0
field max 0
field sum 0
field sqrsum 0
attr interpolationmode none
attr source queueingTime(packetPopped)
attr title "queueing times, histogram"
attr unit s
bin	-inf	0
bin	-0.5	0
bin	-0.48	0
bin	-0.46	0
bin	-0.44	0
bin	-0.42	0
bin	-0.4	0
bin	-0.38	0
bin	-0.36	0
bin	-0.34	0
bin	-0.32	0
bin	-0.3	0
bin	-0.28	0
bin	-0.26	0
bin	-0.24	0
bin	-0.22	0
bin	-0.2	0
bin	-0.18	0
bin	-0.16	0
bin	-0.14	0
bin	-0.12	0
bin	-0.1	0
bin	-0.08	0
bin	-0.06	0
bin	-0.04	0
bin	-0.02	0
bin	0	4
bin	0.02	0
bin	0.04	0
bin	0.06	0
bin	0.08	0
bin	0.1	0
bin	0.12	0
bin	0.14	0
bin	0.16	0
bin	0.18	0
bin	0.2	0
bin	0.22	0
bin	0.24	0
bin	0.26	0
bin	0.28	0
bin	0.3	0
bin	0.32	0
bin	0.34	0
bin	0.36	0
bin	0.38	0
bin	0.4	0
bin	0.42	0
bin	0.44	0
bin	0.46	0
bin	0.48	0
bin	0.5	0
scalar TestL2Deploy.switch1.eth[1].mac.queue queueLength:max 1
attr interpolationmode sample-hold
attr source "count(packetPushed) - count(packetPopped) - count(packetRemoved) - count(packetDropped)"
attr title "queue length, max"
scalar TestL2Deploy.switch1.eth[1].mac.queue queueLength:timeavg 0
attr interpolationmode sample-hold
attr source "count(packetPushed) - count(packetPopped) - count(packetRemoved) - count(packetDropped)"
attr title "queue length, timeavg"
scalar TestL2Deploy.switch1.eth[1].mac.queue packetPushed:count 4
attr interpolationmode none
attr title "packet pushed, count"
scalar TestL2Deploy.switch1.eth[1].mac.queue packetPushed:sum(packetBytes) 786
attr interpolationmode none
attr title "packet pushed, sum(packetBytes)"
scalar TestL2Deploy.switch1.eth[1].mac.queue packetDropQueueOverflow:count 0
attr interpolationmode none
attr source packetDropReasonIsQueueOverflow(packetDropped)
attr title "packet drops: queue overflow, count"
scalar TestL2Deploy.switch1.eth[1].mac.queue packetDropQueueOverflow:sum(packetBytes) 0
attr interpolationmode none
attr source packetDropReasonIsQueueOverflow(packetDropped)
attr title "packet drops: queue overflow, sum(packetBytes)"
scalar TestL2Deploy.switch1.eth[1].mac.queue packetRemoved:count 0
attr interpolationmode none
attr title "packets removed, count"
scalar TestL2Deploy.switch1.eth[1].mac.queue packetRemoved:sum(packetBytes) 0
attr interpolationmode none
attr title "packets removed, sum(packetBytes)"
scalar TestL2Deploy.switch1.eth[1].mac "simulated time" 1.00035621378
scalar TestL2Deploy.switch1.eth[1].mac full-duplex 1
scalar TestL2Deploy.switch1.eth[1].mac "frames/sec sent" 3.9985756522523
scalar TestL2Deploy.switch1.eth[1].mac "frames/sec rcvd" 1.9992878261261
scalar TestL2Deploy.switch1.eth[1].mac "bits/sec sent" 6285.7609253406
scalar TestL2Deploy.switch1.eth[1].mac "bits/sec rcvd" 1023.6353669766
scalar TestL2Deploy.switch1.eth[1].mac "rx channel idle (%)" 99.998848410212
scalar TestL2Deploy.switch1.eth[1].mac "rx channel utilization (%)" 0.0011515897878487
scalar TestL2Deploy.switch1.eth[1].mac "rx channel collision (%)" 0
scalar TestL2Deploy.switch1.eth[1].mac collisions 0
scalar TestL2Deploy.switch1.eth[1].mac backoffs 0
scalar TestL2Deploy.switch1.eth[1].mac txPk:count 4
attr interpolationmode none
attr source packetSentToLower
attr title "packets transmitted, count"
scalar TestL2Deploy.switch1.eth[1].mac txPk:sum(packetBytes) 786
attr interpolationmode none
attr source packetSentToLower
attr title "packets transmitted, sum(packetBytes)"
scalar TestL2Deploy.switch1.eth[1].mac packetReceivedFromUpper:count 4
attr interpolationmode none
attr source packetReceivedFromUpper
attr title "packet bytes from higher layer, count"
scalar TestL2Deploy.switch1.eth[1].mac packetReceivedFromUpper:sum(packetBytes) 786
attr interpolationmode none
attr source packetReceivedFromUpper
attr title "packet bytes from higher layer, sum(packetBytes)"
scalar TestL2Deploy.switch1.eth[1].mac passedUpPk:count 2
attr interpolationmode none
attr source packetSentToUpper
attr title "packets passed to higher layer, count"
scalar TestL2Deploy.switch1.eth[1].mac passedUpPk:sum(packetBytes) 128
attr interpolationmode none
attr source packetSentToUpper
attr title "packets passed to higher layer, sum(packetBytes)"
scalar TestL2Deploy.switch1.eth[1].mac packetDropIncorrectlyReceived:count 0
attr interpolationmode none
attr source packetDropReasonIsIncorrectlyReceived(packetDropped)
attr title "packet drop: incorrectly received, count"
scalar TestL2Deploy.switch1.eth[1].mac packetDropIncorrectlyReceived:sum(packetBytes) 0
attr interpolationmode none
attr source packetDropReasonIsIncorrectlyReceived(packetDropped)
attr title "packet drop: incorrectly received, sum(packetBytes)"
scalar TestL2Deploy.switch1.eth[1].mac packetDropInterfaceDown:count 0
attr interpolationmode none
attr source packetDropReasonIsInterfaceDown(packetDropped)
attr title "packet drop: interface down, count"
scalar TestL2Deploy.switch1.eth[1].mac packetDropInterfaceDown:sum(packetBytes) 0
attr interpolationmode none
attr source packetDropReasonIsInterfaceDown(packetDropped)
attr title "packet drop: interface down, sum(packetBytes)"
scalar TestL2Deploy.switch1.eth[1].mac packetDropNotAddressedToUs:count 0
attr interpolationmode none
attr source packetDropReasonIsNotAddressedToUs(packetDropped)
attr title "packet drop: not addressed to us, count"
scalar TestL2Deploy.switch1.eth[1].mac packetDropNotAddressedToUs:sum(packetBytes) 0
attr interpolationmode none
attr source packetDropReasonIsNotAddressedToUs(packetDropped)
attr title "packet drop: not addressed to us, sum(packetBytes)"
scalar TestL2Deploy.switch1.eth[1].mac backoffSlotsGenerated:count 0
attr interpolationmode none
attr title "backoff, count"
scalar TestL2Deploy.switch1.eth[1].mac collision:count 0
attr interpolationmode none
attr title "collision, count"
scalar TestL2Deploy.switch1.eth[1].mac rxPausePkUnits:count 0
attr interpolationmode none
attr title "pause units received, count"
scalar TestL2Deploy.switch1.eth[1].mac rxPausePkUnits:sum 0
attr interpolationmode none
attr title "pause units received, sum"
scalar TestL2Deploy.switch1.eth[1].mac txPausePkUnits:count 0
attr interpolationmode none
attr title "pause units sent, count"
scalar TestL2Deploy.switch1.eth[1].mac txPausePkUnits:sum 0
attr interpolationmode none
attr title "pause units sent, sum"
scalar TestL2Deploy.switch1.eth[1].mac rxPkOk:count 2
attr interpolationmode none
attr source rxPkOk
attr title "packets received OK, count"
scalar TestL2Deploy.switch1.eth[1].mac rxPkOk:sum(packetBytes) 128
attr interpolationmode none
attr source rxPkOk
attr title "packets received OK, sum(packetBytes)"
scalar TestL2Deploy.switch1.eth[1].qEncap packetDropped:count 2
attr interpolationmode none
attr source packetDropped
attr title "packet dropped, count"
scalar TestL2Deploy.switch1.eth[1].qEncap packetDropped:sum(packetBytes) 100
attr interpolationmode none
attr source packetDropped
attr title "packet dropped, sum(packetBytes)"
scalar TestL2Deploy.switch1.eth[2].mac.queue packetPopped:count 3
attr interpolationmode none
attr title "packet popped, count"
scalar TestL2Deploy.switch1.eth[2].mac.queue packetPopped:sum(packetBytes) 192
attr interpolationmode none
attr title "packet popped, sum(packetBytes)"
statistic TestL2Deploy.switch1.eth[2].mac.queue queueingTime:histogram
field count 3
field mean 0
field stddev 0
field min 0
field max 0
field sum 0
field sqrsum 0
attr interpolationmode none
attr source queueingTime(packetPopped)
attr title "queueing times, histogram"
attr unit s
bin	-inf	0
bin	-0.5	0
bin	-0.48	0
bin	-0.46	0
bin	-0.44	0
bin	-0.42	0
bin	-0.4	0
bin	-0.38	0
bin	-0.36	0
bin	-0.34	0
bin	-0.32	0
bin	-0.3	0
bin	-0.28	0
bin	-0.26	0
bin	-0.24	0
bin	-0.22	0
bin	-0.2	0
bin	-0.18	0
bin	-0.16	0
bin	-0.14	0
bin	-0.12	0
bin	-0.1	0
bin	-0.08	0
bin	-0.06	0
bin	-0.04	0
bin	-0.02	0
bin	0	3
bin	0.02	0
bin	0.04	0
bin	0.06	0
bin	0.08	0
bin	0.1	0
bin	0.12	0
bin	0.14	0
bin	0.16	0
bin	0.18	0
bin	0.2	0
bin	0.22	0
bin	0.24	0
bin	0.26	0
bin	0.28	0
bin	0.3	0
bin	0.32	0
bin	0.34	0
bin	0.36	0
bin	0.38	0
bin	0.4	0
bin	0.42	0
bin	0.44	0
bin	0.46	0
bin	0.48	0
bin	0.5	0
scalar TestL2Deploy.switch1.eth[2].mac.queue queueLength:max 1
attr interpolationmode sample-hold
attr source "count(packetPushed) - count(packetPopped) - count(packetRemoved) - count(packetDropped)"
attr title "queue length, max"
scalar TestL2Deploy.switch1.eth[2].mac.queue queueLength:timeavg 0
attr interpolationmode sample-hold
attr source "count(packetPushed) - count(packetPopped) - count(packetRemoved) - count(packetDropped)"
attr title "queue length, timeavg"
scalar TestL2Deploy.switch1.eth[2].mac.queue packetPushed:count 3
attr interpolationmode none
attr title "packet pushed, count"
scalar TestL2Deploy.switch1.eth[2].mac.queue packetPushed:sum(packetBytes) 192
attr interpolationmode none
attr title "packet pushed, sum(packetBytes)"
scalar TestL2Deploy.switch1.eth[2].mac.queue packetDropQueueOverflow:count 0
attr interpolationmode none
attr source packetDropReasonIsQueueOverflow(packetDropped)
attr title "packet drops: queue overflow, count"
scalar TestL2Deploy.switch1.eth[2].mac.queue packetDropQueueOverflow:sum(packetBytes) 0
attr interpolationmode none
attr source packetDropReasonIsQueueOverflow(packetDropped)
attr title "packet drops: queue overflow, sum(packetBytes)"
scalar TestL2Deploy.switch1.eth[2].mac.queue packetRemoved:count 0
attr interpolationmode none
attr title "packets removed, count"
scalar TestL2Deploy.switch1.eth[2].mac.queue packetRemoved:sum(packetBytes) 0
attr interpolationmode none
attr title "packets removed, sum(packetBytes)"
scalar TestL2Deploy.switch1.eth[2].mac "simulated time" 1.00035621378
scalar TestL2Deploy.switch1.eth[2].mac full-duplex 1
scalar TestL2Deploy.switch1.eth[2].mac "frames/sec sent" 2.9989317391892
scalar TestL2Deploy.switch1.eth[2].mac "frames/sec rcvd" 4.9982195653154
scalar TestL2Deploy.switch1.eth[2].mac "bits/sec sent" 1535.4530504649
scalar TestL2Deploy.switch1.eth[2].mac "bits/sec rcvd" 6797.5786088289
scalar TestL2Deploy.switch1.eth[2].mac "rx channel idle (%)" 99.992882535339
scalar TestL2Deploy.switch1.eth[2].mac "rx channel utilization (%)" 0.0071174646610091
scalar TestL2Deploy.switch1.eth[2].mac "rx channel collision (%)" 0
scalar TestL2Deploy.switch1.eth[2].mac collisions 0
scalar TestL2Deploy.switch1.eth[2].mac backoffs 0
scalar TestL2Deploy.switch1.eth[2].mac txPk:count 3
attr interpolationmode none
attr source packetSentToLower
attr title "packets transmitted, count"
scalar TestL2Deploy.switch1.eth[2].mac txPk:sum(packetBytes) 192
attr interpolationmode none
attr source packetSentToLower
attr title "packets transmitted, sum(packetBytes)"
scalar TestL2Deploy.switch1.eth[2].mac packetReceivedFromUpper:count 3
attr interpolationmode none
attr source packetReceivedFromUpper
attr title "packet bytes from higher layer, count"
scalar TestL2Deploy.switch1.eth[2].mac packetReceivedFromUpper:sum(packetBytes) 192
attr interpolationmode none
attr source packetReceivedFromUpper
attr title "packet bytes from higher layer, sum(packetBytes)"
scalar TestL2Deploy.switch1.eth[2].mac passedUpPk:count 5
attr interpolationmode none
attr source packetSentToUpper
attr title "packets passed to higher layer, count"
scalar TestL2Deploy.switch1.eth[2].mac passedUpPk:sum(packetBytes) 850
attr interpolationmode none
attr source packetSentToUpper
attr title "packets passed to higher layer, sum(packetBytes)"
scalar TestL2Deploy.switch1.eth[2].mac packetDropIncorrectlyReceived:count 0
attr interpolationmode none
attr source packetDropReasonIsIncorrectlyReceived(packetDropped)
attr title "packet drop: incorrectly received, count"
scalar TestL2Deploy.switch1.eth[2].mac packetDropIncorrectlyReceived:sum(packetBytes) 0
attr interpolationmode none
attr source packetDropReasonIsIncorrectlyReceived(packetDropped)
attr title "packet drop: incorrectly received, sum(packetBytes)"
scalar TestL2Deploy.switch1.eth[2].mac packetDropInterfaceDown:count 0
attr interpolationmode none
attr source packetDropReasonIsInterfaceDown(packetDropped)
attr title "packet drop: interface down, count"
scalar TestL2Deploy.switch1.eth[2].mac packetDropInterfaceDown:sum(packetBytes) 0
attr interpolationmode none
attr source packetDropReasonIsInterfaceDown(packetDropped)
attr title "packet drop: interface down, sum(packetBytes)"
scalar TestL2Deploy.switch1.eth[2].mac packetDropNotAddressedToUs:count 0
attr interpolationmode none
attr source packetDropReasonIsNotAddressedToUs(packetDropped)
attr title "packet drop: not addressed to us, count"
scalar TestL2Deploy.switch1.eth[2].mac packetDropNotAddressedToUs:sum(packetBytes) 0
attr interpolationmode none
attr source packetDropReasonIsNotAddressedToUs(packetDropped)
attr title "packet drop: not addressed to us, sum(packetBytes)"
scalar TestL2Deploy.switch1.eth[2].mac backoffSlotsGenerated:count 0
attr interpolationmode none
attr title "backoff, count"
scalar TestL2Deploy.switch1.eth[2].mac collision:count 0
attr interpolationmode none
attr title "collision, count"
scalar TestL2Deploy.switch1.eth[2].mac rxPausePkUnits:count 0
attr interpolationmode none
attr title "pause units received, count"
scalar TestL2Deploy.switch1.eth[2].mac rxPausePkUnits:sum 0
attr interpolationmode none
attr title "pause units received, sum"
scalar TestL2Deploy.switch1.eth[2].mac txPausePkUnits:count 0
attr interpolationmode none
attr title "pause units sent, count"
scalar TestL2Deploy.switch1.eth[2].mac txPausePkUnits:sum 0
attr interpolationmode none
attr title "pause units sent, sum"
scalar TestL2Deploy.switch1.eth[2].mac rxPkOk:count 5
attr interpolationmode none
attr source rxPkOk
attr title "packets received OK, count"
scalar TestL2Deploy.switch1.eth[2].mac rxPkOk:sum(packetBytes) 850
attr interpolationmode none
attr source rxPkOk
attr title "packets received OK, sum(packetBytes)"
scalar TestL2Deploy.switch1.eth[2].qEncap packetDropped:count 1
attr interpolationmode none
attr source packetDropped
attr title "packet dropped, count"
scalar TestL2Deploy.switch1.eth[2].qEncap packetDropped:sum(packetBytes) 50
attr interpolationmode none
attr source packetDropped
attr title "packet dropped, sum(packetBytes)"
scalar TestL2Deploy.switch1.eth[3].mac.queue packetPopped:count 5
attr interpolationmode none
attr title "packet popped, count"
scalar TestL2Deploy.switch1.eth[3].mac.queue packetPopped:sum(packetBytes) 850
attr interpolationmode none
attr title "packet popped, sum(packetBytes)"
statistic TestL2Deploy.switch1.eth[3].mac.queue queueingTime:histogram
field count 5
field mean 0
field stddev 0
field min 0
field max 0
field sum 0
field sqrsum 0
attr interpolationmode none
attr source queueingTime(packetPopped)
attr title "queueing times, histogram"
attr unit s
bin	-inf	0
bin	-0.5	0
bin	-0.48	0
bin	-0.46	0
bin	-0.44	0
bin	-0.42	0
bin	-0.4	0
bin	-0.38	0
bin	-0.36	0
bin	-0.34	0
bin	-0.32	0
bin	-0.3	0
bin	-0.28	0
bin	-0.26	0
bin	-0.24	0
bin	-0.22	0
bin	-0.2	0
bin	-0.18	0
bin	-0.16	0
bin	-0.14	0
bin	-0.12	0
bin	-0.1	0
bin	-0.08	0
bin	-0.06	0
bin	-0.04	0
bin	-0.02	0
bin	0	5
bin	0.02	0
bin	0.04	0
bin	0.06	0
bin	0.08	0
bin	0.1	0
bin	0.12	0
bin	0.14	0
bin	0.16	0
bin	0.18	0
bin	0.2	0
bin	0.22	0
bin	0.24	0
bin	0.26	0
bin	0.28	0
bin	0.3	0
bin	0.32	0
bin	0.34	0
bin	0.36	0
bin	0.38	0
bin	0.4	0
bin	0.42	0
bin	0.44	0
bin	0.46	0
bin	0.48	0
bin	0.5	0
scalar TestL2Deploy.switch1.eth[3].mac.queue queueLength:max 1
attr interpolationmode sample-hold
attr source "count(packetPushed) - count(packetPopped) - count(packetRemoved) - count(packetDropped)"
attr title "queue length, max"
scalar TestL2Deploy.switch1.eth[3].mac.queue queueLength:timeavg 0
attr interpolationmode sample-hold
attr source "count(packetPushed) - count(packetPopped) - count(packetRemoved) - count(packetDropped)"
attr title "queue length, timeavg"
scalar TestL2Deploy.switch1.eth[3].mac.queue packetPushed:count 5
attr interpolationmode none
attr title "packet pushed, count"
scalar TestL2Deploy.switch1.eth[3].mac.queue packetPushed:sum(packetBytes) 850
attr interpolationmode none
attr title "packet pushed, sum(packetBytes)"
scalar TestL2Deploy.switch1.eth[3].mac.queue packetDropQueueOverflow:count 0
attr interpolationmode none
attr source packetDropReasonIsQueueOverflow(packetDropped)
attr title "packet drops: queue overflow, count"
scalar TestL2Deploy.switch1.eth[3].mac.queue packetDropQueueOverflow:sum(packetBytes) 0
attr interpolationmode none
attr source packetDropReasonIsQueueOverflow(packetDropped)
attr title "packet drops: queue overflow, sum(packetBytes)"
scalar TestL2Deploy.switch1.eth[3].mac.queue packetRemoved:count 0
attr interpolationmode none
attr title "packets removed, count"
scalar TestL2Deploy.switch1.eth[3].mac.queue packetRemoved:sum(packetBytes) 0
attr interpolationmode none
attr title "packets removed, sum(packetBytes)"
scalar TestL2Deploy.switch1.eth[3].mac "simulated time" 1.00035621378
scalar TestL2Deploy.switch1.eth[3].mac full-duplex 1
scalar TestL2Deploy.switch1.eth[3].mac "frames/sec sent" 4.9982195653154
scalar TestL2Deploy.switch1.eth[3].mac "frames/sec rcvd" 2.9989317391892
scalar TestL2Deploy.switch1.eth[3].mac "bits/sec sent" 6797.5786088289
scalar TestL2Deploy.switch1.eth[3].mac "bits/sec rcvd" 1535.4530504649
scalar TestL2Deploy.switch1.eth[3].mac "rx channel idle (%)" 99.998272615318
scalar TestL2Deploy.switch1.eth[3].mac "rx channel utilization (%)" 0.001727384681773
scalar TestL2Deploy.switch1.eth[3].mac "rx channel collision (%)" 0
scalar TestL2Deploy.switch1.eth[3].mac collisions 0
scalar TestL2Deploy.switch1.eth[3].mac backoffs 0
scalar TestL2Deploy.switch1.eth[3].mac txPk:count 5
attr interpolationmode none
attr source packetSentToLower
attr title "packets transmitted, count"
scalar TestL2Deploy.switch1.eth[3].mac txPk:sum(packetBytes) 850
attr interpolationmode none
attr source packetSentToLower
attr title "packets transmitted, sum(packetBytes)"
scalar TestL2Deploy.switch1.eth[3].mac packetReceivedFromUpper:count 5
attr interpolationmode none
attr source packetReceivedFromUpper
attr title "packet bytes from higher layer, count"
scalar TestL2Deploy.switch1.eth[3].mac packetReceivedFromUpper:sum(packetBytes) 850
attr interpolationmode none
attr source packetReceivedFromUpper
attr title "packet bytes from higher layer, sum(packetBytes)"
scalar TestL2Deploy.switch1.eth[3].mac passedUpPk:count 3
attr interpolationmode none
attr source packetSentToUpper
attr title "packets passed to higher layer, count"
scalar TestL2Deploy.switch1.eth[3].mac passedUpPk:sum(packetBytes) 192
attr interpolationmode none
attr source packetSentToUpper
attr title "packets passed to higher layer, sum(packetBytes)"
scalar TestL2Deploy.switch1.eth[3].mac packetDropIncorrectlyReceived:count 0
attr interpolationmode none
attr source packetDropReasonIsIncorrectlyReceived(packetDropped)
attr title "packet drop: incorrectly received, count"
scalar TestL2Deploy.switch1.eth[3].mac packetDropIncorrectlyReceived:sum(packetBytes) 0
attr interpolationmode none
attr source packetDropReasonIsIncorrectlyReceived(packetDropped)
attr title "packet drop: incorrectly received, sum(packetBytes)"
scalar TestL2Deploy.switch1.eth[3].mac packetDropInterfaceDown:count 0
attr interpolationmode none
attr source packetDropReasonIsInterfaceDown(packetDropped)
attr title "packet drop: interface down, count"
scalar TestL2Deploy.switch1.eth[3].mac packetDropInterfaceDown:sum(packetBytes) 0
attr interpolationmode none
attr source packetDropReasonIsInterfaceDown(packetDropped)
attr title "packet drop: interface down, sum(packetBytes)"
scalar TestL2Deploy.switch1.eth[3].mac packetDropNotAddressedToUs:count 0
attr interpolationmode none
attr source packetDropReasonIsNotAddressedToUs(packetDropped)
attr title "packet drop: not addressed to us, count"
scalar TestL2Deploy.switch1.eth[3].mac packetDropNotAddressedToUs:sum(packetBytes) 0
attr interpolationmode none
attr source packetDropReasonIsNotAddressedToUs(packetDropped)
attr title "packet drop: not addressed to us, sum(packetBytes)"
scalar TestL2Deploy.switch1.eth[3].mac backoffSlotsGenerated:count 0
attr interpolationmode none
attr title "backoff, count"
scalar TestL2Deploy.switch1.eth[3].mac collision:count 0
attr interpolationmode none
attr title "collision, count"
scalar TestL2Deploy.switch1.eth[3].mac rxPausePkUnits:count 0
attr interpolationmode none
attr title "pause units received, count"
scalar TestL2Deploy.switch1.eth[3].mac rxPausePkUnits:sum 0
attr interpolationmode none
attr title "pause units received, sum"
scalar TestL2Deploy.switch1.eth[3].mac txPausePkUnits:count 0
attr interpolationmode none
attr title "pause units sent, count"
scalar TestL2Deploy.switch1.eth[3].mac txPausePkUnits:sum 0
attr interpolationmode none
attr title "pause units sent, sum"
scalar TestL2Deploy.switch1.eth[3].mac rxPkOk:count 3
attr interpolationmode none
attr source rxPkOk
attr title "packets received OK, count"
scalar TestL2Deploy.switch1.eth[3].mac rxPkOk:sum(packetBytes) 192
attr interpolationmode none
attr source rxPkOk
attr title "packets received OK, sum(packetBytes)"
scalar TestL2Deploy.switch1.eth[3].qEncap packetDropped:count 1
attr interpolationmode none
attr source packetDropped
attr title "packet dropped, count"
scalar TestL2Deploy.switch1.eth[3].qEncap packetDropped:sum(packetBytes) 50
attr interpolationmode none
attr source packetDropped
attr title "packet dropped, sum(packetBytes)"
scalar TestL2Deploy.switch1.encap pauseSent:count 0
attr title "pause sent, count"
scalar TestL2Deploy.switch1.encap pauseSent:sum 0
attr title "pause sent, sum"
scalar TestL2Deploy.switch1.encap decapPk:count 0
attr interpolationmode none
attr source decapPk
attr title "packets decapsulated, count"
scalar TestL2Deploy.switch1.encap decapPk:sum(packetBytes) 0
attr interpolationmode none
attr source decapPk
attr title "packets decapsulated, sum(packetBytes)"
scalar TestL2Deploy.switch1.encap encapPk:count 0
attr interpolationmode none
attr source encapPk
attr title "packets encapsulated, count"
scalar TestL2Deploy.switch1.encap encapPk:sum(packetBytes) 0
attr interpolationmode none
attr source encapPk
attr title "packets encapsulated, sum(packetBytes)"
scalar TestL2Deploy.router1.lo[0].lo rcvdPkFromHl:count 0
attr interpolationmode none
attr source packetReceivedFromUpper
attr title "packets received from higher layer, count"
scalar TestL2Deploy.router1.lo[0].lo rcvdPkFromHl:sum(packetBytes) 0
attr interpolationmode none
attr source packetReceivedFromUpper
attr title "packets received from higher layer, sum(packetBytes)"
scalar TestL2Deploy.router1.lo[0].lo passedUpPk:count 0
attr interpolationmode none
attr source packetSentToUpper
attr title "packets passed to higher layer, count"
scalar TestL2Deploy.router1.lo[0].lo passedUpPk:sum(packetBytes) 0
attr interpolationmode none
attr source packetSentToUpper
attr title "packets passed to higher layer, sum(packetBytes)"
scalar TestL2Deploy.router1.eth[0].mac.queue packetPopped:count 3
attr interpolationmode none
attr title "packet popped, count"
scalar TestL2Deploy.router1.eth[0].mac.queue packetPopped:sum(packetBytes) 192
attr interpolationmode none
attr title "packet popped, sum(packetBytes)"
statistic TestL2Deploy.router1.eth[0].mac.queue queueingTime:histogram
field count 3
field mean 0
field stddev 0
field min 0
field max 0
field sum 0
field sqrsum 0
attr interpolationmode none
attr source queueingTime(packetPopped)
attr title "queueing times, histogram"
attr unit s
bin	-inf	0
bin	-0.5	0
bin	-0.48	0
bin	-0.46	0
bin	-0.44	0
bin	-0.42	0
bin	-0.4	0
bin	-0.38	0
bin	-0.36	0
bin	-0.34	0
bin	-0.32	0
bin	-0.3	0
bin	-0.28	0
bin	-0.26	0
bin	-0.24	0
bin	-0.22	0
bin	-0.2	0
bin	-0.18	0
bin	-0.16	0
bin	-0.14	0
bin	-0.12	0
bin	-0.1	0
bin	-0.08	0
bin	-0.06	0
bin	-0.04	0
bin	-0.02	0
bin	0	3
bin	0.02	0
bin	0.04	0
bin	0.06	0
bin	0.08	0
bin	0.1	0
bin	0.12	0
bin	0.14	0
bin	0.16	0
bin	0.18	0
bin	0.2	0
bin	0.22	0
bin	0.24	0
bin	0.26	0
bin	0.28	0
bin	0.3	0
bin	0.32	0
bin	0.34	0
bin	0.36	0
bin	0.38	0
bin	0.4	0
bin	0.42	0
bin	0.44	0
bin	0.46	0
bin	0.48	0
bin	0.5	0
scalar TestL2Deploy.router1.eth[0].mac.queue queueLength:max 1
attr interpolationmode sample-hold
attr source "count(packetPushed) - count(packetPopped) - count(packetRemoved) - count(packetDropped)"
attr title "queue length, max"
scalar TestL2Deploy.router1.eth[0].mac.queue queueLength:timeavg 0
attr interpolationmode sample-hold
attr source "count(packetPushed) - count(packetPopped) - count(packetRemoved) - count(packetDropped)"
attr title "queue length, timeavg"
scalar TestL2Deploy.router1.eth[0].mac.queue packetPushed:count 3
attr interpolationmode none
attr title "packet pushed, count"
scalar TestL2Deploy.router1.eth[0].mac.queue packetPushed:sum(packetBytes) 192
attr interpolationmode none
attr title "packet pushed, sum(packetBytes)"
scalar TestL2Deploy.router1.eth[0].mac.queue packetDropQueueOverflow:count 0
attr interpolationmode none
attr source packetDropReasonIsQueueOverflow(packetDropped)
attr title "packet drops: queue overflow, count"
scalar TestL2Deploy.router1.eth[0].mac.queue packetDropQueueOverflow:sum(packetBytes) 0
attr interpolationmode none
attr source packetDropReasonIsQueueOverflow(packetDropped)
attr title "packet drops: queue overflow, sum(packetBytes)"
scalar TestL2Deploy.router1.eth[0].mac.queue packetRemoved:count 0
attr interpolationmode none
attr title "packets removed, count"
scalar TestL2Deploy.router1.eth[0].mac.queue packetRemoved:sum(packetBytes) 0
attr interpolationmode none
attr title "packets removed, sum(packetBytes)"
scalar TestL2Deploy.router1.eth[0].mac "simulated time" 1.00035621378
scalar TestL2Deploy.router1.eth[0].mac full-duplex 1
scalar TestL2Deploy.router1.eth[0].mac "frames/sec sent" 2.9989317391892
scalar TestL2Deploy.router1.eth[0].mac "frames/sec rcvd" 4.9982195653154
scalar TestL2Deploy.router1.eth[0].mac "bits/sec sent" 1535.4530504649
scalar TestL2Deploy.router1.eth[0].mac "bits/sec rcvd" 6797.5786088289
scalar TestL2Deploy.router1.eth[0].mac "rx channel idle (%)" 100
scalar TestL2Deploy.router1.eth[0].mac "rx channel utilization (%)" 0
scalar TestL2Deploy.router1.eth[0].mac txPk:count 3
attr interpolationmode none
attr source packetSentToLower
attr title "packets transmitted, count"
scalar TestL2Deploy.router1.eth[0].mac txPk:sum(packetBytes) 192
attr interpolationmode none
attr source packetSentToLower
attr title "packets transmitted, sum(packetBytes)"
scalar TestL2Deploy.router1.eth[0].mac packetReceivedFromUpper:count 3
attr interpolationmode none
attr source packetReceivedFromUpper
attr title "packet bytes from higher layer, count"
scalar TestL2Deploy.router1.eth[0].mac packetReceivedFromUpper:sum(packetBytes) 154
attr interpolationmode none
attr source packetReceivedFromUpper
attr title "packet bytes from higher layer, sum(packetBytes)"
scalar TestL2Deploy.router1.eth[0].mac passedUpPk:count 5
attr interpolationmode none
attr source packetSentToUpper
attr title "packets passed to higher layer, count"
scalar TestL2Deploy.router1.eth[0].mac passedUpPk:sum(packetBytes) 850
attr interpolationmode none
attr source packetSentToUpper
attr title "packets passed to higher layer, sum(packetBytes)"
scalar TestL2Deploy.router1.eth[0].mac packetDropIncorrectlyReceived:count 0
attr interpolationmode none
attr source packetDropReasonIsIncorrectlyReceived(packetDropped)
attr title "packet drop: incorrectly received, count"
scalar TestL2Deploy.router1.eth[0].mac packetDropIncorrectlyReceived:sum(packetBytes) 0
attr interpolationmode none
attr source packetDropReasonIsIncorrectlyReceived(packetDropped)
attr title "packet drop: incorrectly received, sum(packetBytes)"
scalar TestL2Deploy.router1.eth[0].mac packetDropInterfaceDown:count 0
attr interpolationmode none
attr source packetDropReasonIsInterfaceDown(packetDropped)
attr title "packet drop: interface down, count"
scalar TestL2Deploy.router1.eth[0].mac packetDropInterfaceDown:sum(packetBytes) 0
attr interpolationmode none
attr source packetDropReasonIsInterfaceDown(packetDropped)
attr title "packet drop: interface down, sum(packetBytes)"
scalar TestL2Deploy.router1.eth[0].mac packetDropNotAddressedToUs:count 0
attr interpolationmode none
attr source packetDropReasonIsNotAddressedToUs(packetDropped)
attr title "packet drop: not addressed to us, count"
scalar TestL2Deploy.router1.eth[0].mac packetDropNotAddressedToUs:sum(packetBytes) 0
attr interpolationmode none
attr source packetDropReasonIsNotAddressedToUs(packetDropped)
attr title "packet drop: not addressed to us, sum(packetBytes)"
scalar TestL2Deploy.router1.eth[0].mac rxPausePkUnits:count 0
attr interpolationmode none
attr title "pause units received, count"
scalar TestL2Deploy.router1.eth[0].mac rxPausePkUnits:sum 0
attr interpolationmode none
attr title "pause units received, sum"
scalar TestL2Deploy.router1.eth[0].mac txPausePkUnits:count 0
attr interpolationmode none
attr title "pause units sent, count"
scalar TestL2Deploy.router1.eth[0].mac txPausePkUnits:sum 0
attr interpolationmode none
attr title "pause units sent, sum"
scalar TestL2Deploy.router1.eth[0].mac rxPkOk:count 5
attr interpolationmode none
attr source rxPkOk
attr title "packets received OK, count"
scalar TestL2Deploy.router1.eth[0].mac rxPkOk:sum(packetBytes) 850
attr interpolationmode none
attr source rxPkOk
attr title "packets received OK, sum(packetBytes)"
scalar TestL2Deploy.router1.eth[0].encap pauseSent:count 0
attr title "pause sent, count"
scalar TestL2Deploy.router1.eth[0].encap pauseSent:sum 0
attr title "pause sent, sum"
scalar TestL2Deploy.router1.eth[0].encap decapPk:count 5
attr interpolationmode none
attr source decapPk
attr title "packets decapsulated, count"
scalar TestL2Deploy.router1.eth[0].encap decapPk:sum(packetBytes) 760
attr interpolationmode none
attr source decapPk
attr title "packets decapsulated, sum(packetBytes)"
scalar TestL2Deploy.router1.eth[0].encap encapPk:count 3
attr interpolationmode none
attr source encapPk
attr title "packets encapsulated, count"
scalar TestL2Deploy.router1.eth[0].encap encapPk:sum(packetBytes) 100
attr interpolationmode none
attr source encapPk
attr title "packets encapsulated, sum(packetBytes)"
scalar TestL2Deploy.router1.eth[0].qEncap packetDropped:count 0
attr interpolationmode none
attr source packetDropped
attr title "packet dropped, count"
scalar TestL2Deploy.router1.eth[0].qEncap packetDropped:sum(packetBytes) 0
attr interpolationmode none
attr source packetDropped
attr title "packet dropped, sum(packetBytes)"
scalar TestL2Deploy.router1.eth[1].mac.queue packetPopped:count 4
attr interpolationmode none
attr title "packet popped, count"
scalar TestL2Deploy.router1.eth[1].mac.queue packetPopped:sum(packetBytes) 786
attr interpolationmode none
attr title "packet popped, sum(packetBytes)"
statistic TestL2Deploy.router1.eth[1].mac.queue queueingTime:histogram
field count 4
field mean 0
field stddev 0
field min 0
field max 0
field sum 0
field sqrsum 0
attr interpolationmode none
attr source queueingTime(packetPopped)
attr title "queueing times, histogram"
attr unit s
bin	-inf	0
bin	-0.5	0
bin	-0.48	0
bin	-0.46	0
bin	-0.44	0
bin	-0.42	0
bin	-0.4	0
bin	-0.38	0
bin	-0.36	0
bin	-0.34	0
bin	-0.32	0
bin	-0.3	0
bin	-0.28	0
bin	-0.26	0
bin	-0.24	0
bin	-0.22	0
bin	-0.2	0
bin	-0.18	0
bin	-0.16	0
bin	-0.14	0
bin	-0.12	0
bin	-0.1	0
bin	-0.08	0
bin	-0.06	0
bin	-0.04	0
bin	-0.02	0
bin	0	4
bin	0.02	0
bin	0.04	0
bin	0.06	0
bin	0.08	0
bin	0.1	0
bin	0.12	0
bin	0.14	0
bin	0.16	0
bin	0.18	0
bin	0.2	0
bin	0.22	0
bin	0.24	0
bin	0.26	0
bin	0.28	0
bin	0.3	0
bin	0.32	0
bin	0.34	0
bin	0.36	0
bin	0.38	0
bin	0.4	0
bin	0.42	0
bin	0.44	0
bin	0.46	0
bin	0.48	0
bin	0.5	0
scalar TestL2Deploy.router1.eth[1].mac.queue queueLength:max 1
attr interpolationmode sample-hold
attr source "count(packetPushed) - count(packetPopped) - count(packetRemoved) - count(packetDropped)"
attr title "queue length, max"
scalar TestL2Deploy.router1.eth[1].mac.queue queueLength:timeavg 0
attr interpolationmode sample-hold
attr source "count(packetPushed) - count(packetPopped) - count(packetRemoved) - count(packetDropped)"
attr title "queue length, timeavg"
scalar TestL2Deploy.router1.eth[1].mac.queue packetPushed:count 4
attr interpolationmode none
attr title "packet pushed, count"
scalar TestL2Deploy.router1.eth[1].mac.queue packetPushed:sum(packetBytes) 786
attr interpolationmode none
attr title "packet pushed, sum(packetBytes)"
scalar TestL2Deploy.router1.eth[1].mac.queue packetDropQueueOverflow:count 0
attr interpolationmode none
attr source packetDropReasonIsQueueOverflow(packetDropped)
attr title "packet drops: queue overflow, count"
scalar TestL2Deploy.router1.eth[1].mac.queue packetDropQueueOverflow:sum(packetBytes) 0
attr interpolationmode none
attr source packetDropReasonIsQueueOverflow(packetDropped)
attr title "packet drops: queue overflow, sum(packetBytes)"
scalar TestL2Deploy.router1.eth[1].mac.queue packetRemoved:count 0
attr interpolationmode none
attr title "packets removed, count"
scalar TestL2Deploy.router1.eth[1].mac.queue packetRemoved:sum(packetBytes) 0
attr interpolationmode none
attr title "packets removed, sum(packetBytes)"
scalar TestL2Deploy.router1.eth[1].mac "simulated time" 1.00035621378
scalar TestL2Deploy.router1.eth[1].mac full-duplex 1
scalar TestL2Deploy.router1.eth[1].mac "frames/sec sent" 2.9989317391892
scalar TestL2Deploy.router1.eth[1].mac "frames/sec rcvd" 1.9992878261261
scalar TestL2Deploy.router1.eth[1].mac "bits/sec sent" 1535.4530504649
scalar TestL2Deploy.router1.eth[1].mac "bits/sec rcvd" 1023.6353669766
scalar TestL2Deploy.router1.eth[1].mac "rx channel idle (%)" 100
scalar TestL2Deploy.router1.eth[1].mac "rx channel utilization (%)" 0
scalar TestL2Deploy.router1.eth[1].mac txPk:count 3
attr interpolationmode none
attr source packetSentToLower
attr title "packets transmitted, count"
scalar TestL2Deploy.router1.eth[1].mac txPk:sum(packetBytes) 192
attr interpolationmode none
attr source packetSentToLower
attr title "packets transmitted, sum(packetBytes)"
scalar TestL2Deploy.router1.eth[1].mac packetReceivedFromUpper:count 4
attr interpolationmode none
attr source packetReceivedFromUpper
attr title "packet bytes from higher layer, count"
scalar TestL2Deploy.router1.eth[1].mac packetReceivedFromUpper:sum(packetBytes) 760
attr interpolationmode none
attr source packetReceivedFromUpper
attr title "packet bytes from higher layer, sum(packetBytes)"
scalar TestL2Deploy.router1.eth[1].mac passedUpPk:count 2
attr interpolationmode none
attr source packetSentToUpper
attr title "packets passed to higher layer, count"
scalar TestL2Deploy.router1.eth[1].mac passedUpPk:sum(packetBytes) 128
attr interpolationmode none
attr source packetSentToUpper
attr title "packets passed to higher layer, sum(packetBytes)"
scalar TestL2Deploy.router1.eth[1].mac packetDropIncorrectlyReceived:count 0
attr interpolationmode none
attr source packetDropReasonIsIncorrectlyReceived(packetDropped)
attr title "packet drop: incorrectly received, count"
scalar TestL2Deploy.router1.eth[1].mac packetDropIncorrectlyReceived:sum(packetBytes) 0
attr interpolationmode none
attr source packetDropReasonIsIncorrectlyReceived(packetDropped)
attr title "packet drop: incorrectly received, sum(packetBytes)"
scalar TestL2Deploy.router1.eth[1].mac packetDropInterfaceDown:count 0
attr interpolationmode none
attr source packetDropReasonIsInterfaceDown(packetDropped)
attr title "packet drop: interface down, count"
scalar TestL2Deploy.router1.eth[1].mac packetDropInterfaceDown:sum(packetBytes) 0
attr interpolationmode none
attr source packetDropReasonIsInterfaceDown(packetDropped)
attr title "packet drop: interface down, sum(packetBytes)"
scalar TestL2Deploy.router1.eth[1].mac packetDropNotAddressedToUs:count 0
attr interpolationmode none
attr source packetDropReasonIsNotAddressedToUs(packetDropped)
attr title "packet drop: not addressed to us, count"
scalar TestL2Deploy.router1.eth[1].mac packetDropNotAddressedToUs:sum(packetBytes) 0
attr interpolationmode none
attr source packetDropReasonIsNotAddressedToUs(packetDropped)
attr title "packet drop: not addressed to us, sum(packetBytes)"
scalar TestL2Deploy.router1.eth[1].mac rxPausePkUnits:count 0
attr interpolationmode none
attr title "pause units received, count"
scalar TestL2Deploy.router1.eth[1].mac rxPausePkUnits:sum 0
attr interpolationmode none
attr title "pause units received, sum"
scalar TestL2Deploy.router1.eth[1].mac txPausePkUnits:count 0
attr interpolationmode none
attr title "pause units sent, count"
scalar TestL2Deploy.router1.eth[1].mac txPausePkUnits:sum 0
[...]
attr title "packets received from higher layer, count"
scalar TestL2Deploy.mitigator.lo[0].lo rcvdPkFromHl:sum(packetBytes) 0
attr interpolationmode none
attr source packetReceivedFromUpper
attr title "packets received from higher layer, sum(packetBytes)"
scalar TestL2Deploy.mitigator.lo[0].lo passedUpPk:count 0
attr interpolationmode none
attr source packetSentToUpper
attr title "packets passed to higher layer, count"
scalar TestL2Deploy.mitigator.lo[0].lo passedUpPk:sum(packetBytes) 0
attr interpolationmode none
attr source packetSentToUpper
attr title "packets passed to higher layer, sum(packetBytes)"
scalar TestL2Deploy.mitigator.eth[0].mac.queue packetPopped:count 2
attr interpolationmode none
attr title "packet popped, count"
scalar TestL2Deploy.mitigator.eth[0].mac.queue packetPopped:sum(packetBytes) 128
attr interpolationmode none
attr title "packet popped, sum(packetBytes)"
statistic TestL2Deploy.mitigator.eth[0].mac.queue queueingTime:histogram
field count 2
field mean 0
field stddev 0
field min 0
field max 0
field sum 0
field sqrsum 0
attr interpolationmode none
attr source queueingTime(packetPopped)
attr title "queueing times, histogram"
attr unit s
bin	-inf	0
bin	-0.5	0
bin	-0.48	0
bin	-0.46	0
bin	-0.44	0
bin	-0.42	0
bin	-0.4	0
bin	-0.38	0
bin	-0.36	0
bin	-0.34	0
bin	-0.32	0
bin	-0.3	0
bin	-0.28	0
bin	-0.26	0
bin	-0.24	0
bin	-0.22	0
bin	-0.2	0
bin	-0.18	0
bin	-0.16	0
bin	-0.14	0
bin	-0.12	0
bin	-0.1	0
bin	-0.08	0
bin	-0.06	0
bin	-0.04	0
bin	-0.02	0
bin	0	2
bin	0.02	0
bin	0.04	0
bin	0.06	0
bin	0.08	0
bin	0.1	0
bin	0.12	0
bin	0.14	0
bin	0.16	0
bin	0.18	0
bin	0.2	0
bin	0.22	0
bin	0.24	0
bin	0.26	0
bin	0.28	0
bin	0.3	0
bin	0.32	0
bin	0.34	0
bin	0.36	0
bin	0.38	0
bin	0.4	0
bin	0.42	0
bin	0.44	0
bin	0.46	0
bin	0.48	0
bin	0.5	0
scalar TestL2Deploy.mitigator.eth[0].mac.queue queueLength:max 1
attr interpolationmode sample-hold
attr source "count(packetPushed) - count(packetPopped) - count(packetRemoved) - count(packetDropped)"
attr title "queue length, max"
scalar TestL2Deploy.mitigator.eth[0].mac.queue queueLength:timeavg 0
attr interpolationmode sample-hold
attr source "count(packetPushed) - count(packetPopped) - count(packetRemoved) - count(packetDropped)"
attr title "queue length, timeavg"
scalar TestL2Deploy.mitigator.eth[0].mac.queue packetPushed:count 2
attr interpolationmode none
attr title "packet pushed, count"
scalar TestL2Deploy.mitigator.eth[0].mac.queue packetPushed:sum(packetBytes) 128
attr interpolationmode none
attr title "packet pushed, sum(packetBytes)"
scalar TestL2Deploy.mitigator.eth[0].mac.queue packetDropQueueOverflow:count 0
attr interpolationmode none
attr source packetDropReasonIsQueueOverflow(packetDropped)
attr title "packet drops: queue overflow, count"
scalar TestL2Deploy.mitigator.eth[0].mac.queue packetDropQueueOverflow:sum(packetBytes) 0
attr interpolationmode none
attr source packetDropReasonIsQueueOverflow(packetDropped)
attr title "packet drops: queue overflow, sum(packetBytes)"
scalar TestL2Deploy.mitigator.eth[0].mac.queue packetRemoved:count 0
attr interpolationmode none
attr title "packets removed, count"
scalar TestL2Deploy.mitigator.eth[0].mac.queue packetRemoved:sum(packetBytes) 0
attr interpolationmode none
attr title "packets removed, sum(packetBytes)"
scalar TestL2Deploy.mitigator.eth[0].mac "simulated time" 1.00035621378
scalar TestL2Deploy.mitigator.eth[0].mac full-duplex 1
scalar TestL2Deploy.mitigator.eth[0].mac "frames/sec sent" 1.9992878261261
scalar TestL2Deploy.mitigator.eth[0].mac "frames/sec rcvd" 3.9985756522523
scalar TestL2Deploy.mitigator.eth[0].mac "bits/sec sent" 1023.6353669766
scalar TestL2Deploy.mitigator.eth[0].mac "bits/sec rcvd" 6285.7609253406
scalar TestL2Deploy.mitigator.eth[0].mac "rx channel idle (%)" 100
scalar TestL2Deploy.mitigator.eth[0].mac "rx channel utilization (%)" 0
scalar TestL2Deploy.mitigator.eth[0].mac txPk:count 2
attr interpolationmode none
attr source packetSentToLower
attr title "packets transmitted, count"
scalar TestL2Deploy.mitigator.eth[0].mac txPk:sum(packetBytes) 128
attr interpolationmode none
attr source packetSentToLower
attr title "packets transmitted, sum(packetBytes)"
scalar TestL2Deploy.mitigator.eth[0].mac packetReceivedFromUpper:count 2
attr interpolationmode none
attr source packetReceivedFromUpper
attr title "packet bytes from higher layer, count"
scalar TestL2Deploy.mitigator.eth[0].mac packetReceivedFromUpper:sum(packetBytes) 108
attr interpolationmode none
attr source packetReceivedFromUpper
attr title "packet bytes from higher layer, sum(packetBytes)"
scalar TestL2Deploy.mitigator.eth[0].mac passedUpPk:count 4
attr interpolationmode none
attr source packetSentToUpper
attr title "packets passed to higher layer, count"
scalar TestL2Deploy.mitigator.eth[0].mac passedUpPk:sum(packetBytes) 786
attr interpolationmode none
attr source packetSentToUpper
attr title "packets passed to higher layer, sum(packetBytes)"
scalar TestL2Deploy.mitigator.eth[0].mac packetDropIncorrectlyReceived:count 0
attr interpolationmode none
attr source packetDropReasonIsIncorrectlyReceived(packetDropped)
attr title "packet drop: incorrectly received, count"
scalar TestL2Deploy.mitigator.eth[0].mac packetDropIncorrectlyReceived:sum(packetBytes) 0
attr interpolationmode none
attr source packetDropReasonIsIncorrectlyReceived(packetDropped)
attr title "packet drop: incorrectly received, sum(packetBytes)"
scalar TestL2Deploy.mitigator.eth[0].mac packetDropInterfaceDown:count 0
attr interpolationmode none
attr source packetDropReasonIsInterfaceDown(packetDropped)
attr title "packet drop: interface down, count"
scalar TestL2Deploy.mitigator.eth[0].mac packetDropInterfaceDown:sum(packetBytes) 0
attr interpolationmode none
attr source packetDropReasonIsInterfaceDown(packetDropped)
attr title "packet drop: interface down, sum(packetBytes)"
scalar TestL2Deploy.mitigator.eth[0].mac packetDropNotAddressedToUs:count 0
attr interpolationmode none
attr source packetDropReasonIsNotAddressedToUs(packetDropped)
attr title "packet drop: not addressed to us, count"
scalar TestL2Deploy.mitigator.eth[0].mac packetDropNotAddressedToUs:sum(packetBytes) 0
attr interpolationmode none
attr source packetDropReasonIsNotAddressedToUs(packetDropped)
attr title "packet drop: not addressed to us, sum(packetBytes)"
scalar TestL2Deploy.mitigator.eth[0].mac rxPausePkUnits:count 0
attr interpolationmode none
attr title "pause units received, count"
scalar TestL2Deploy.mitigator.eth[0].mac rxPausePkUnits:sum 0
attr interpolationmode none
attr title "pause units received, sum"
scalar TestL2Deploy.mitigator.eth[0].mac txPausePkUnits:count 0
attr interpolationmode none
attr title "pause units sent, count"
scalar TestL2Deploy.mitigator.eth[0].mac txPausePkUnits:sum 0
attr interpolationmode none
attr title "pause units sent, sum"
scalar TestL2Deploy.mitigator.eth[0].mac rxPkOk:count 4
attr interpolationmode none
attr source rxPkOk
attr title "packets received OK, count"
scalar TestL2Deploy.mitigator.eth[0].mac rxPkOk:sum(packetBytes) 786
attr interpolationmode none
attr source rxPkOk
attr title "packets received OK, sum(packetBytes)"
scalar TestL2Deploy.mitigator.eth[0].encap pauseSent:count 0
attr title "pause sent, count"
scalar TestL2Deploy.mitigator.eth[0].encap pauseSent:sum 0
attr title "pause sent, sum"
scalar TestL2Deploy.mitigator.eth[0].encap decapPk:count 4
attr interpolationmode none
attr source decapPk
attr title "packets decapsulated, count"
scalar TestL2Deploy.mitigator.eth[0].encap decapPk:sum(packetBytes) 714
attr interpolationmode none
attr source decapPk
attr title "packets decapsulated, sum(packetBytes)"
scalar TestL2Deploy.mitigator.eth[0].encap encapPk:count 2
attr interpolationmode none
attr source encapPk
attr title "packets encapsulated, count"
scalar TestL2Deploy.mitigator.eth[0].encap encapPk:sum(packetBytes) 72
attr interpolationmode none
attr source encapPk
attr title "packets encapsulated, sum(packetBytes)"
scalar TestL2Deploy.mitigator.eth[0].qEncap packetDropped:count 0
attr interpolationmode none
attr source packetDropped
attr title "packet dropped, count"
scalar TestL2Deploy.mitigator.eth[0].qEncap packetDropped:sum(packetBytes) 0
attr interpolationmode none
attr source packetDropped
attr title "packet dropped, sum(packetBytes)"
scalar TestL2Deploy.mitigator.eth[1].mac.queue packetPopped:count 5
attr interpolationmode none
attr title "packet popped, count"
scalar TestL2Deploy.mitigator.eth[1].mac.queue packetPopped:sum(packetBytes) 850
attr interpolationmode none
attr title "packet popped, sum(packetBytes)"
statistic TestL2Deploy.mitigator.eth[1].mac.queue queueingTime:histogram
field count 5
field mean 0
field stddev 0
field min 0
field max 0
field sum 0
field sqrsum 0
attr interpolationmode none
attr source queueingTime(packetPopped)
attr title "queueing times, histogram"
attr unit s
bin	-inf	0
bin	-0.5	0
bin	-0.48	0
bin	-0.46	0
bin	-0.44	0
bin	-0.42	0
bin	-0.4	0
bin	-0.38	0
bin	-0.36	0
bin	-0.34	0
bin	-0.32	0
bin	-0.3	0
bin	-0.28	0
bin	-0.26	0
bin	-0.24	0
bin	-0.22	0
bin	-0.2	0
bin	-0.18	0
bin	-0.16	0
bin	-0.14	0
bin	-0.12	0
bin	-0.1	0
bin	-0.08	0
bin	-0.06	0
bin	-0.04	0
bin	-0.02	0
bin	0	5
bin	0.02	0
bin	0.04	0
bin	0.06	0
bin	0.08	0
bin	0.1	0
bin	0.12	0
bin	0.14	0
bin	0.16	0
bin	0.18	0
bin	0.2	0
bin	0.22	0
bin	0.24	0
bin	0.26	0
bin	0.28	0
bin	0.3	0
bin	0.32	0
bin	0.34	0
bin	0.36	0
bin	0.38	0
bin	0.4	0
bin	0.42	0
bin	0.44	0
bin	0.46	0
bin	0.48	0
bin	0.5	0
scalar TestL2Deploy.mitigator.eth[1].mac.queue queueLength:max 1
attr interpolationmode sample-hold
attr source "count(packetPushed) - count(packetPopped) - count(packetRemoved) - count(packetDropped)"
attr title "queue length, max"
scalar TestL2Deploy.mitigator.eth[1].mac.queue queueLength:timeavg 0
attr interpolationmode sample-hold
attr source "count(packetPushed) - count(packetPopped) - count(packetRemoved) - count(packetDropped)"
attr title "queue length, timeavg"
scalar TestL2Deploy.mitigator.eth[1].mac.queue packetPushed:count 5
attr interpolationmode none
attr title "packet pushed, count"
scalar TestL2Deploy.mitigator.eth[1].mac.queue packetPushed:sum(packetBytes) 850
attr interpolationmode none
attr title "packet pushed, sum(packetBytes)"
scalar TestL2Deploy.mitigator.eth[1].mac.queue packetDropQueueOverflow:count 0
attr interpolationmode none
attr source packetDropReasonIsQueueOverflow(packetDropped)
attr title "packet drops: queue overflow, count"
scalar TestL2Deploy.mitigator.eth[1].mac.queue packetDropQueueOverflow:sum(packetBytes) 0
attr interpolationmode none
attr source packetDropReasonIsQueueOverflow(packetDropped)
attr title "packet drops: queue overflow, sum(packetBytes)"
scalar TestL2Deploy.mitigator.eth[1].mac.queue packetRemoved:count 0
attr interpolationmode none
attr title "packets removed, count"
scalar TestL2Deploy.mitigator.eth[1].mac.queue packetRemoved:sum(packetBytes) 0
attr interpolationmode none
attr title "packets removed, sum(packetBytes)"
scalar TestL2Deploy.mitigator.eth[1].mac "simulated time" 1.00035621378
scalar TestL2Deploy.mitigator.eth[1].mac full-duplex 1
scalar TestL2Deploy.mitigator.eth[1].mac "frames/sec sent" 4.9982195653154
scalar TestL2Deploy.mitigator.eth[1].mac "frames/sec rcvd" 2.9989317391892
scalar TestL2Deploy.mitigator.eth[1].mac "bits/sec sent" 6797.5786088289
scalar TestL2Deploy.mitigator.eth[1].mac "bits/sec rcvd" 1535.4530504649
scalar TestL2Deploy.mitigator.eth[1].mac "rx channel idle (%)" 100
scalar TestL2Deploy.mitigator.eth[1].mac "rx channel utilization (%)" 0
scalar TestL2Deploy.mitigator.eth[1].mac txPk:count 5
attr interpolationmode none
attr source packetSentToLower
attr title "packets transmitted, count"
scalar TestL2Deploy.mitigator.eth[1].mac txPk:sum(packetBytes) 850
attr interpolationmode none
attr source packetSentToLower
attr title "packets transmitted, sum(packetBytes)"
scalar TestL2Deploy.mitigator.eth[1].mac packetReceivedFromUpper:count 5
attr interpolationmode none
attr source packetReceivedFromUpper
attr title "packet bytes from higher layer, count"
scalar TestL2Deploy.mitigator.eth[1].mac packetReceivedFromUpper:sum(packetBytes) 806
attr interpolationmode none
attr source packetReceivedFromUpper
attr title "packet bytes from higher layer, sum(packetBytes)"
scalar TestL2Deploy.mitigator.eth[1].mac passedUpPk:count 3
attr interpolationmode none
attr source packetSentToUpper
attr title "packets passed to higher layer, count"
scalar TestL2Deploy.mitigator.eth[1].mac passedUpPk:sum(packetBytes) 192
attr interpolationmode none
attr source packetSentToUpper
attr title "packets passed to higher layer, sum(packetBytes)"
scalar TestL2Deploy.mitigator.eth[1].mac packetDropIncorrectlyReceived:count 0
attr interpolationmode none
attr source packetDropReasonIsIncorrectlyReceived(packetDropped)
attr title "packet drop: incorrectly received, count"
scalar TestL2Deploy.mitigator.eth[1].mac packetDropIncorrectlyReceived:sum(packetBytes) 0
attr interpolationmode none
attr source packetDropReasonIsIncorrectlyReceived(packetDropped)
attr title "packet drop: incorrectly received, sum(packetBytes)"
scalar TestL2Deploy.mitigator.eth[1].mac packetDropInterfaceDown:count 0
attr interpolationmode none
attr source packetDropReasonIsInterfaceDown(packetDropped)
attr title "packet drop: interface down, count"
scalar TestL2Deploy.mitigator.eth[1].mac packetDropInterfaceDown:sum(packetBytes) 0
attr interpolationmode none
attr source packetDropReasonIsInterfaceDown(packetDropped)
attr title "packet drop: interface down, sum(packetBytes)"
scalar TestL2Deploy.mitigator.eth[1].mac packetDropNotAddressedToUs:count 0
attr interpolationmode none
attr source packetDropReasonIsNotAddressedToUs(packetDropped)
attr title "packet drop: not addressed to us, count"
scalar TestL2Deploy.mitigator.eth[1].mac packetDropNotAddressedToUs:sum(packetBytes) 0
attr interpolationmode none
attr source packetDropReasonIsNotAddressedToUs(packetDropped)
attr title "packet drop: not addressed to us, sum(packetBytes)"
scalar TestL2Deploy.mitigator.eth[1].mac rxPausePkUnits:count 0
attr interpolationmode none
attr title "pause units received, count"
scalar TestL2Deploy.mitigator.eth[1].mac rxPausePkUnits:sum 0
attr interpolationmode none
attr title "pause units received, sum"
scalar TestL2Deploy.mitigator.eth[1].mac txPausePkUnits:count 0
attr interpolationmode none
attr title "pause units sent, count"
scalar TestL2Deploy.mitigator.eth[1].mac txPausePkUnits:sum 0
attr interpolationmode none
attr title "pause units sent, sum"
scalar TestL2Deploy.mitigator.eth[1].mac rxPkOk:count 3
attr interpolationmode none
attr source rxPkOk
attr title "packets received OK, count"
scalar TestL2Deploy.mitigator.eth[1].mac rxPkOk:sum(packetBytes) 192
attr interpolationmode none
attr source rxPkOk
attr title "packets received OK, sum(packetBytes)"
scalar TestL2Deploy.mitigator.eth[1].encap pauseSent:count 0
attr title "pause sent, count"
scalar TestL2Deploy.mitigator.eth[1].encap pauseSent:sum 0
attr title "pause sent, sum"
scalar TestL2Deploy.mitigator.eth[1].encap decapPk:count 3
attr interpolationmode none
attr source decapPk
attr title "packets decapsulated, count"
scalar TestL2Deploy.mitigator.eth[1].encap decapPk:sum(packetBytes) 138
attr interpolationmode none
attr source decapPk
attr title "packets decapsulated, sum(packetBytes)"
scalar TestL2Deploy.mitigator.eth[1].encap encapPk:count 5
attr interpolationmode none
attr source encapPk
attr title "packets encapsulated, count"
scalar TestL2Deploy.mitigator.eth[1].encap encapPk:sum(packetBytes) 716
attr interpolationmode none
attr source encapPk
attr title "packets encapsulated, sum(packetBytes)"
scalar TestL2Deploy.mitigator.eth[1].qEncap packetDropped:count 0
attr interpolationmode none
attr source packetDropped
attr title "packet dropped, count"
scalar TestL2Deploy.mitigator.eth[1].qEncap packetDropped:sum(packetBytes) 0
attr interpolationmode none
attr source packetDropped
attr title "packet dropped, sum(packetBytes)"
scalar TestL2Deploy.mitigator.ipv4.ip packetDropAddressResolutionFailed:count 0
attr interpolationmode none
attr source packetDropReasonIsAddressResolutionFailed(packetDropped)
attr title "packet drop: address resolution failed, count"
scalar TestL2Deploy.mitigator.ipv4.ip packetDropAddressResolutionFailed:sum(packetBytes) 0
attr interpolationmode none
attr source packetDropReasonIsAddressResolutionFailed(packetDropped)
attr title "packet drop: address resolution failed, sum(packetBytes)"
scalar TestL2Deploy.mitigator.ipv4.ip packetDropHopLimitReached:count 0
attr interpolationmode none
attr source packetDropReasonIsHopLimitReached(packetDropped)
attr title "packet drop: hop limit reached, count"
scalar TestL2Deploy.mitigator.ipv4.ip packetDropHopLimitReached:sum(packetBytes) 0
attr interpolationmode none
attr source packetDropReasonIsHopLimitReached(packetDropped)
attr title "packet drop: hop limit reached, sum(packetBytes)"
scalar TestL2Deploy.mitigator.ipv4.ip packetDropForwardingDisabled:count 0
attr interpolationmode none
attr source packetDropReasonIsForwardingDisabled(packetDropped)
attr title "packet drop: forwarding disabled, count"
scalar TestL2Deploy.mitigator.ipv4.ip packetDropForwardingDisabled:sum(packetBytes) 0
attr interpolationmode none
attr source packetDropReasonIsForwardingDisabled(packetDropped)
attr title "packet drop: forwarding disabled, sum(packetBytes)"
scalar TestL2Deploy.mitigator.ipv4.ip packetDropNoInterfaceFound:count 0
attr interpolationmode none
attr source packetDropReasonIsNoInterfaceFound(packetDropped)
attr title "packet drop: no interface found, count"
scalar TestL2Deploy.mitigator.ipv4.ip packetDropNoInterfaceFound:sum(packetBytes) 0
attr interpolationmode none
attr source packetDropReasonIsNoInterfaceFound(packetDropped)
attr title "packet drop: no interface found, sum(packetBytes)"
scalar TestL2Deploy.mitigator.ipv4.ip packetDropNoRouteFound:count 0
attr interpolationmode none
attr source packetDropReasonIsNoRouteFound(packetDropped)
attr title "packet drop: no route found, count"
scalar TestL2Deploy.mitigator.ipv4.ip packetDropNoRouteFound:sum(packetBytes) 0
attr interpolationmode none
attr source packetDropReasonIsNoRouteFound(packetDropped)
attr title "packet drop: no route found, sum(packetBytes)"
scalar TestL2Deploy.mitigator.ipv4.ip packetDropUndefined:count 0
attr interpolationmode none
attr source packetDropReasonIsUndefined(packetDropped)
attr title "packet drop: undefined, count"
scalar TestL2Deploy.mitigator.ipv4.ip packetDropUndefined:sum(packetBytes) 0
attr interpolationmode none
attr source packetDropReasonIsUndefined(packetDropped)
attr title "packet drop: undefined, sum(packetBytes)"
scalar TestL2Deploy.mitigator.ipv4.arp arpReplySent:count 2
attr source arpReplySent
attr title "ARP replies sent, count"
scalar TestL2Deploy.mitigator.ipv4.arp arpReplySent:sum(packetBytes) 56
attr source arpReplySent
attr title "ARP replies sent, sum(packetBytes)"
scalar TestL2Deploy.mitigator.ipv4.arp arpRequestSent:count 1
attr source arpRequestSent
attr title "ARP request sent, count"
scalar TestL2Deploy.mitigator.ipv4.arp arpRequestSent:sum(packetBytes) 28
attr source arpRequestSent
attr title "ARP request sent, sum(packetBytes)"
scalar TestL2Deploy.mitigator.ipv4.arp arpResolutionFailed:count 0
attr title "ARP failed resolutions, count"
scalar TestL2Deploy.mitigator.ipv4.arp arpResolutionCompleted:count 3
attr title "ARP completed resolutions, count"
scalar TestL2Deploy.mitigator.ipv4.arp arpResolutionInitiated:count 1
attr title "ARP initiated resolutions, count"

